<?xml version="1.0" encoding="UTF-8"?>
<additional>
<poi id="home" x="158.1400018310547" y="301.42999969482423" color="0,255,0" layer="30"/>
<poi id="school" x="364.759951171875" y="-1.9299780273437364" color="0,255,0" layer="30"/>
<poi id="restaurant" x="222.5578485107422" y="129.85082946777345" color="0,255,0" layer="30"/>
<poi id="cafe" x="271.1000085449219" y="199.120009765625" color="0,255,0" layer="30"/>
<poi id="work" x="288.29748779296875" y="272.77003036499025" color="0,255,0" layer="30"/>
<poi id="gym" x="232.25998168945313" y="1.6399987792968886" color="0,255,0" layer="30"/>
<poi id="theater" x="335.549990234375" y="79.18000732421876" color="0,255,0" layer="30"/>
<poi id="university" x="299.4599938964844" y="272.7699998474121" color="0,255,0" layer="30"/>
<poi id="bar" x="200.69264465332031" y="326.5899659252167" color="0,255,0" layer="30"/>
</additional>
