<?xml version='1.0' encoding='UTF-8'?>
<routes xmlns:xsi="http://www.w3.org/2001/XMLSchema-instance" xsi:noNamespaceSchemaLocation="http://sumo.dlr.de/xsd/routes_file.xsd">
    
    <!-- Trips -->
    <trip id="veh0" type="vehicle.audi.tt" depart="0" from="-8.0.00" to="-3.0.00">
        <stop parkingArea="pa-1.0.00" duration="500"/>
    </trip>
    
    <trip id="veh1" type="vehicle.audi.tt" depart="10" from="-8.0.00" to="-3.0.00">
        <stop parkingArea="pa-1.0.00" duration="500"/>
    </trip>

    <trip id="veh2" type="vehicle.audi.tt" depart="20" from="-8.0.00" to="-3.0.00">
        <stop parkingArea="pa-1.0.00" duration="500"/>
    </trip>
    <trip id="veh3" type="vehicle.audi.tt" depart="30" from="-8.0.00" to="-3.0.00">
        <stop parkingArea="pa-1.0.00" duration="500"/>
    </trip>
    <trip id="veh4" type="vehicle.audi.tt" depart="40" from="-8.0.00" to="-3.0.00">
        <stop parkingArea="pa-1.0.00" duration="500"/>
    </trip>
</routes>
