<?xml version="1.0" encoding="UTF-8"?>

<!-- generated on 2025-04-07 15:22:14.321999 by generateParkingAreas.py UNKNOWN
<configuration>
    <net-file value="town01/osm.net_modified.net.xml"/>
    <output-file value="town01/park.add.xml"/>
    <verbose value="True"/>
</configuration>
-->

<additional xmlns:xsi="http://www.w3.org/2001/XMLSchema-instance" xsi:noNamespaceSchemaLocation="http://sumo.dlr.de/xsd/additional_file.xsd">
    <parkingArea id="pa-1.0.00" lane="-1.0.00_0" roadsideCapacity="26" length="5"/>
    <parkingArea id="pa-10.0.00" lane="-10.0.00_0" roadsideCapacity="26" length="5"/>
    <parkingArea id="pa-12.0.00" lane="-12.0.00_0" roadsideCapacity="37" length="5"/>
    <parkingArea id="pa-16.0.00" lane="-16.0.00_0" roadsideCapacity="5" length="5"/>
    <parkingArea id="pa-17.0.00" lane="-17.0.00_0" roadsideCapacity="8" length="5"/>
    <parkingArea id="pa-18.0.00" lane="-18.0.00_0" roadsideCapacity="6" length="5"/>
    <parkingArea id="pa-19.0.00" lane="-19.0.00_0" roadsideCapacity="18" length="5"/>
    <parkingArea id="pa-2.0.00" lane="-2.0.00_0" roadsideCapacity="7" length="5"/>
    <parkingArea id="pa-21.0.00" lane="-21.0.00_0" roadsideCapacity="5" length="5"/>
    <parkingArea id="pa-22.0.00" lane="-22.0.00_0" roadsideCapacity="8" length="5"/>
    <parkingArea id="pa-23.0.00" lane="-23.0.00_0" roadsideCapacity="7" length="5"/>
    <parkingArea id="pa-24.0.00" lane="-24.0.00_0" roadsideCapacity="18" length="5"/>
    <parkingArea id="pa-25.0.00" lane="-25.0.00_0" roadsideCapacity="5" length="5"/>
    <parkingArea id="pa-3.0.00" lane="-3.0.00_0" roadsideCapacity="82" length="5"/>
    <parkingArea id="pa-4.0.00" lane="-4.0.00_0" roadsideCapacity="37" length="5"/>
    <parkingArea id="pa-6.0.00" lane="-6.0.00_0" roadsideCapacity="37" length="5"/>
    <parkingArea id="pa-7.0.00" lane="-7.0.00_0" roadsideCapacity="5" length="5"/>
    <parkingArea id="pa-8.0.00" lane="-8.0.00_0" roadsideCapacity="60" length="5"/>
    <parkingArea id="pa-9.0.00" lane="-9.0.00_0" roadsideCapacity="7" length="5"/>
    <parkingArea id="pa0.0.00" lane="0.0.00_0" roadsideCapacity="58" length="5"/>
    <parkingArea id="pa1.0.00" lane="1.0.00_0" roadsideCapacity="26" length="5"/>
    <parkingArea id="pa10.0.00" lane="10.0.00_0" roadsideCapacity="26" length="5"/>
    <parkingArea id="pa12.0.00" lane="12.0.00_0" roadsideCapacity="37" length="5"/>
    <parkingArea id="pa16.0.00" lane="16.0.00_0" roadsideCapacity="5" length="5"/>
    <parkingArea id="pa17.0.00" lane="17.0.00_0" roadsideCapacity="8" length="5"/>
    <parkingArea id="pa18.0.00" lane="18.0.00_0" roadsideCapacity="6" length="5"/>
    <parkingArea id="pa19.0.00" lane="19.0.00_0" roadsideCapacity="18" length="5"/>
    <parkingArea id="pa2.0.00" lane="2.0.00_0" roadsideCapacity="7" length="5"/>
    <parkingArea id="pa21.0.00" lane="21.0.00_0" roadsideCapacity="5" length="5"/>
    <parkingArea id="pa22.0.00" lane="22.0.00_0" roadsideCapacity="8" length="5"/>
    <parkingArea id="pa23.0.00" lane="23.0.00_0" roadsideCapacity="7" length="5"/>
    <parkingArea id="pa24.0.00" lane="24.0.00_0" roadsideCapacity="18" length="5"/>
    <parkingArea id="pa25.0.00" lane="25.0.00_0" roadsideCapacity="5" length="5"/>
    <parkingArea id="pa4.0.00" lane="4.0.00_0" roadsideCapacity="37" length="5"/>
    <parkingArea id="pa5.0.00" lane="5.0.00_0" roadsideCapacity="77" length="5"/>
    <parkingArea id="pa6.0.00" lane="6.0.00_0" roadsideCapacity="37" length="5"/>
    <parkingArea id="pa7.0.00" lane="7.0.00_0" roadsideCapacity="5" length="5"/>
    <parkingArea id="pa9.0.00" lane="9.0.00_0" roadsideCapacity="7" length="5"/>
</additional>
