<?xml version='1.0' encoding='UTF-8'?>
<routes xmlns:xsi="http://www.w3.org/2001/XMLSchema-instance" xsi:noNamespaceSchemaLocation="http://sumo.dlr.de/xsd/routes_file.xsd">
    <vehicle id="0" depart="0.00" type="v_normal4">
        <route edges="16.0.00 -1.0.00 -25.0.00 -10.0.00" />
    </vehicle>
    <vehicle id="1" depart="900.00" type="v_normal4">
        <route edges="-23.0.00 -12.0.00 18.0.00 17.0.00 16.0.00 -1.0.00 -2.0.00" />
    </vehicle>
    <vehicle id="2" depart="1800.00" type="v_normal1">
        <route edges="2.0.00 -25.0.00 9.0.00 -22.0.00 -23.0.00 -12.0.00 18.0.00" />
    </vehicle>
    <vehicle id="3" depart="2700.00" type="v_normal4">
        <route edges="4.0.00 22.0.00 21.0.00 2.0.00 1.0.00 0.0.00 -14.0.00" />
    </vehicle>
    <vehicle id="4" depart="3600.00" type="v_normal3">
        <route edges="-6.0.00 19.0.00 18.0.00 4.0.00 22.0.00 -9.0.00 -10.0.00" />
    </vehicle>
    <vehicle id="5" depart="4500.00" type="v_normal2">
        <route edges="-2.0.00 -21.0.00 -9.0.00 -10.0.00 16.0.00 0.0.00" />
    </vehicle>
    <vehicle id="6" depart="5400.00" type="v_normal0">
        <route edges="-10.0.00 -17.0.00 -18.0.00 -19.0.00" />
    </vehicle>
    <vehicle id="7" depart="6300.00" type="v_normal4">
        <route edges="16.0.00 -1.0.00 -25.0.00 9.0.00 21.0.00 2.0.00 1.0.00" />
    </vehicle>
    <vehicle id="8" depart="7200.00" type="v_normal4">
        <route edges="-2.0.00 -21.0.00 -22.0.00 -4.0.00 -18.0.00 12.0.00" />
    </vehicle>
    <vehicle id="9" depart="8100.00" type="v_normal1">
        <route edges="23.0.00 22.0.00 -9.0.00 -10.0.00 16.0.00 -1.0.00" />
    </vehicle>
    <vehicle id="10" depart="9000.00" type="v_normal2">
        <route edges="23.0.00 22.0.00 21.0.00 2.0.00 -25.0.00 9.0.00 -22.0.00 -23.0.00 -12.0.00 18.0.00" />
    </vehicle>
    <vehicle id="11" depart="9900.00" type="v_normal2">
        <route edges="-25.0.00 -10.0.00 -17.0.00 -18.0.00" />
    </vehicle>
    <vehicle id="12" depart="10800.00" type="v_normal1">
        <route edges="7.0.00 19.0.00 18.0.00 17.0.00 16.0.00 -1.0.00 -25.0.00" />
    </vehicle>
    <vehicle id="13" depart="11700.00" type="v_normal0">
        <route edges="-14.0.00" />
    </vehicle>
    <vehicle id="14" depart="12600.00" type="v_normal4">
        <route edges="24.0.00 -12.0.00 -19.0.00 -7.0.00 14.0.00" />
    </vehicle>
    <vehicle id="15" depart="13500.00" type="v_normal2">
        <route edges="23.0.00 22.0.00 21.0.00 2.0.00" />
    </vehicle>
    <vehicle id="16" depart="14400.00" type="v_normal3">
        <route edges="1.0.00 0.0.00 -14.0.00 7.0.00" />
    </vehicle>
    <vehicle id="17" depart="15300.00" type="v_normal0">
        <route edges="-4.0.00 17.0.00 10.0.00" />
    </vehicle>
    <vehicle id="18" depart="16200.00" type="v_normal3">
        <route edges="24.0.00 -12.0.00 -19.0.00 -7.0.00 14.0.00" />
    </vehicle>
    <vehicle id="19" depart="17100.00" type="v_normal3">
        <route edges="25.0.00 1.0.00 -16.0.00 -17.0.00 -18.0.00 12.0.00" />
    </vehicle>
    <vehicle id="20" depart="18000.00" type="v_normal0">
        <route edges="19.0.00 18.0.00 4.0.00 22.0.00 -9.0.00 -10.0.00" />
    </vehicle>
    <vehicle id="21" depart="18900.00" type="v_normal0">
        <route edges="-21.0.00 -22.0.00 -23.0.00" />
    </vehicle>
    <vehicle id="22" depart="19800.00" type="v_normal4">
        <route edges="-14.0.00 7.0.00 19.0.00 18.0.00 17.0.00 16.0.00 -1.0.00 -2.0.00 -21.0.00" />
    </vehicle>
    <vehicle id="23" depart="20700.00" type="v_normal2">
        <route edges="-16.0.00 10.0.00 9.0.00 -22.0.00 -23.0.00" />
    </vehicle>
    <vehicle id="24" depart="21600.00" type="v_normal1">
        <route edges="16.0.00 -1.0.00 -2.0.00 -3.0.00" />
    </vehicle>
    <vehicle id="25" depart="22500.00" type="v_normal3">
        <route edges="-3.0.00 24.0.00 23.0.00 22.0.00 -9.0.00 25.0.00 -2.0.00" />
    </vehicle>
    <vehicle id="26" depart="23400.00" type="v_normal2">
        <route edges="-22.0.00 -4.0.00 -18.0.00 -19.0.00 6.0.00" />
    </vehicle>
    <vehicle id="27" depart="24300.00" type="v_normal3">
        <route edges="16.0.00 -1.0.00 -25.0.00 -10.0.00 -17.0.00 -18.0.00 -19.0.00 -7.0.00 14.0.00" />
    </vehicle>
    <vehicle id="28" depart="25200.00" type="v_normal4">
        <route edges="-18.0.00 12.0.00 23.0.00 22.0.00 21.0.00 2.0.00" />
    </vehicle>
    <vehicle id="29" depart="26100.00" type="v_normal4">
        <route edges="-18.0.00 12.0.00 23.0.00 -4.0.00" />
    </vehicle>
    <vehicle id="30" depart="27000.00" type="v_normal0">
        <route edges="9.0.00 21.0.00 2.0.00 -25.0.00 -10.0.00 16.0.00" />
    </vehicle>
    <vehicle id="31" depart="27900.00" type="v_normal4">
        <route edges="10.0.00 9.0.00 -22.0.00 -23.0.00 -12.0.00 18.0.00" />
    </vehicle>
    <vehicle id="32" depart="28800.00" type="v_normal1">
        <route edges="24.0.00 23.0.00 22.0.00" />
    </vehicle>
    <vehicle id="33" depart="29700.00" type="v_normal3">
        <route edges="-21.0.00 -9.0.00 -10.0.00" />
    </vehicle>
    <vehicle id="34" depart="30600.00" type="v_normal4">
        <route edges="-24.0.00 5.0.00 -21.0.00 -22.0.00" />
    </vehicle>
    <vehicle id="35" depart="31500.00" type="v_normal3">
        <route edges="-2.0.00 -21.0.00 -22.0.00 -4.0.00 -18.0.00 -19.0.00 6.0.00" />
    </vehicle>
    <vehicle id="36" depart="32400.00" type="v_normal0">
        <route edges="4.0.00 -23.0.00 -24.0.00" />
    </vehicle>
    <vehicle id="37" depart="33300.00" type="v_normal4">
        <route edges="17.0.00 10.0.00 9.0.00 -22.0.00 -4.0.00" />
    </vehicle>
    <vehicle id="38" depart="34200.00" type="v_normal0">
        <route edges="5.0.00 -21.0.00 -22.0.00 -23.0.00 -24.0.00 -6.0.00 -7.0.00 14.0.00 -8.0.00" />
    </vehicle>
    <vehicle id="39" depart="35100.00" type="v_normal1">
        <route edges="-22.0.00 -23.0.00 -24.0.00 5.0.00 -21.0.00" />
    </vehicle>
    <vehicle id="40" depart="36000.00" type="v_normal2">
        <route edges="10.0.00 9.0.00 -22.0.00" />
    </vehicle>
    <vehicle id="41" depart="36900.00" type="v_normal4">
        <route edges="12.0.00 23.0.00 22.0.00 -9.0.00 -10.0.00 -17.0.00 4.0.00" />
    </vehicle>
    <vehicle id="42" depart="37800.00" type="v_normal1">
        <route edges="-4.0.00 17.0.00 16.0.00 -1.0.00 -2.0.00" />
    </vehicle>
    <vehicle id="43" depart="38700.00" type="v_normal2">
        <route edges="9.0.00 21.0.00 2.0.00 1.0.00 0.0.00" />
    </vehicle>
    <vehicle id="44" depart="39600.00" type="v_normal3">
        <route edges="-14.0.00 7.0.00 6.0.00 24.0.00 23.0.00 22.0.00 -9.0.00 -10.0.00" />
    </vehicle>
    <vehicle id="45" depart="40500.00" type="v_normal0">
        <route edges="-16.0.00 -17.0.00 4.0.00 22.0.00 -9.0.00 -10.0.00 16.0.00" />
    </vehicle>
    <vehicle id="46" depart="41400.00" type="v_normal4">
        <route edges="22.0.00 21.0.00 -3.0.00 -6.0.00" />
    </vehicle>
    <vehicle id="47" depart="42300.00" type="v_normal4">
        <route edges="-12.0.00 18.0.00 17.0.00 10.0.00 9.0.00 -22.0.00 -4.0.00" />
    </vehicle>
    <vehicle id="48" depart="43200.00" type="v_normal2">
        <route edges="9.0.00 21.0.00 2.0.00 1.0.00" />
    </vehicle>
    <vehicle id="49" depart="44100.00" type="v_normal3">
        <route edges="7.0.00 19.0.00 18.0.00 17.0.00 10.0.00 25.0.00" />
    </vehicle>
    <vehicle id="50" depart="45000.00" type="v_normal1">
        <route edges="-1.0.00 -2.0.00 -21.0.00 -22.0.00 -23.0.00 -24.0.00 -6.0.00 19.0.00" />
    </vehicle>
    <vehicle id="51" depart="45900.00" type="v_normal3">
        <route edges="18.0.00 17.0.00 10.0.00 25.0.00 1.0.00" />
    </vehicle>
    <vehicle id="52" depart="46800.00" type="v_normal4">
        <route edges="-22.0.00 -4.0.00 17.0.00 16.0.00" />
    </vehicle>
    <vehicle id="53" depart="47700.00" type="v_normal1">
        <route edges="-16.0.00 -17.0.00 -18.0.00 -19.0.00 -7.0.00" />
    </vehicle>
    <vehicle id="54" depart="48600.00" type="v_normal4">
        <route edges="-8.0.00 -16.0.00 10.0.00 25.0.00 1.0.00 0.0.00 -14.0.00 7.0.00" />
    </vehicle>
    <vehicle id="55" depart="49500.00" type="v_normal4">
        <route edges="4.0.00 22.0.00 21.0.00 2.0.00 -25.0.00 9.0.00 -22.0.00" />
    </vehicle>
    <vehicle id="56" depart="50400.00" type="v_normal0">
        <route edges="0.0.00 -14.0.00 7.0.00 6.0.00 24.0.00 -12.0.00 -19.0.00" />
    </vehicle>
    <vehicle id="57" depart="51300.00" type="v_normal0">
        <route edges="5.0.00 -21.0.00 -9.0.00 25.0.00" />
    </vehicle>
    <vehicle id="58" depart="52200.00" type="v_normal2">
        <route edges="-23.0.00 -12.0.00 18.0.00 17.0.00 16.0.00" />
    </vehicle>
    <vehicle id="59" depart="53100.00" type="v_normal4">
        <route edges="14.0.00 -8.0.00 -16.0.00 -17.0.00 -18.0.00" />
    </vehicle>
    <vehicle id="60" depart="54000.00" type="v_normal1">
        <route edges="21.0.00 2.0.00 1.0.00" />
    </vehicle>
    <vehicle id="61" depart="54900.00" type="v_normal4">
        <route edges="22.0.00 21.0.00 2.0.00 1.0.00" />
    </vehicle>
    <vehicle id="62" depart="55800.00" type="v_normal1">
        <route edges="-1.0.00 -2.0.00 -21.0.00 -22.0.00 -23.0.00 -24.0.00" />
    </vehicle>
    <vehicle id="63" depart="56700.00" type="v_normal2">
        <route edges="-1.0.00 -25.0.00 -10.0.00 -17.0.00 -18.0.00 -19.0.00 6.0.00" />
    </vehicle>
    <vehicle id="64" depart="57600.00" type="v_normal2">
        <route edges="4.0.00 22.0.00 21.0.00 -3.0.00 24.0.00" />
    </vehicle>
    <vehicle id="65" depart="58500.00" type="v_normal3">
        <route edges="-24.0.00 5.0.00 -21.0.00 -22.0.00 -23.0.00 -12.0.00" />
    </vehicle>
    <vehicle id="66" depart="59400.00" type="v_normal1">
        <route edges="4.0.00 -23.0.00 -12.0.00 -19.0.00 6.0.00" />
    </vehicle>
    <vehicle id="67" depart="60300.00" type="v_normal3">
        <route edges="-14.0.00 7.0.00 6.0.00 24.0.00 23.0.00 22.0.00 -9.0.00" />
    </vehicle>
    <vehicle id="68" depart="61200.00" type="v_normal3">
        <route edges="-12.0.00 18.0.00 4.0.00 22.0.00 21.0.00" />
    </vehicle>
    <vehicle id="69" depart="62100.00" type="v_normal3">
        <route edges="21.0.00 2.0.00 1.0.00 -16.0.00 -17.0.00" />
    </vehicle>
    <vehicle id="70" depart="63000.00" type="v_normal0">
        <route edges="-9.0.00 25.0.00 1.0.00" />
    </vehicle>
    <vehicle id="71" depart="63900.00" type="v_normal1">
        <route edges="-22.0.00 -4.0.00 17.0.00 10.0.00 25.0.00" />
    </vehicle>
    <vehicle id="72" depart="64800.00" type="v_normal1">
        <route edges="-6.0.00 19.0.00 18.0.00 17.0.00 16.0.00 -1.0.00 -2.0.00" />
    </vehicle>
    <vehicle id="73" depart="65700.00" type="v_normal4">
        <route edges="1.0.00 -16.0.00 10.0.00 9.0.00 21.0.00 2.0.00" />
    </vehicle>
    <vehicle id="74" depart="66600.00" type="v_normal4">
        <route edges="-2.0.00 -21.0.00 -22.0.00 -23.0.00 -24.0.00" />
    </vehicle>
    <vehicle id="75" depart="67500.00" type="v_normal2">
        <route edges="9.0.00 21.0.00 2.0.00 -25.0.00 -10.0.00 16.0.00" />
    </vehicle>
    <vehicle id="76" depart="68400.00" type="v_normal4">
        <route edges="-7.0.00 14.0.00 -8.0.00 -16.0.00 10.0.00 25.0.00 1.0.00 0.0.00" />
    </vehicle>
    <vehicle id="77" depart="69300.00" type="v_normal0">
        <route edges="-16.0.00 10.0.00 25.0.00 -2.0.00" />
    </vehicle>
    <vehicle id="78" depart="70200.00" type="v_normal2">
        <route edges="-25.0.00 -10.0.00 -17.0.00 -18.0.00 12.0.00" />
    </vehicle>
    <vehicle id="79" depart="71100.00" type="v_normal2">
        <route edges="-21.0.00 -9.0.00 25.0.00 -2.0.00" />
    </vehicle>
    <vehicle id="80" depart="72000.00" type="v_normal3">
        <route edges="-12.0.00 18.0.00 17.0.00 16.0.00" />
    </vehicle>
    <vehicle id="81" depart="72900.00" type="v_normal4">
        <route edges="-21.0.00 -22.0.00 -23.0.00 -24.0.00 5.0.00" />
    </vehicle>
    <vehicle id="82" depart="73800.00" type="v_normal4">
        <route edges="25.0.00 -2.0.00 -21.0.00 -22.0.00 -23.0.00 -12.0.00" />
    </vehicle>
    <vehicle id="83" depart="74700.00" type="v_normal4">
        <route edges="-21.0.00 -22.0.00 -4.0.00 17.0.00" />
    </vehicle>
    <vehicle id="84" depart="75600.00" type="v_normal1">
        <route edges="-2.0.00 -21.0.00 -9.0.00 -10.0.00 -17.0.00" />
    </vehicle>
    <vehicle id="85" depart="76500.00" type="v_normal1">
        <route edges="6.0.00 24.0.00 -12.0.00 18.0.00 17.0.00 10.0.00" />
    </vehicle>
    <vehicle id="86" depart="77400.00" type="v_normal4">
        <route edges="-8.0.00 -16.0.00 -17.0.00 4.0.00 22.0.00" />
    </vehicle>
    <vehicle id="87" depart="78300.00" type="v_normal4">
        <route edges="23.0.00 -4.0.00 -18.0.00 -19.0.00" />
    </vehicle>
    <vehicle id="88" depart="79200.00" type="v_normal4">
        <route edges="-14.0.00 7.0.00 6.0.00 24.0.00 -12.0.00 -19.0.00 -7.0.00" />
    </vehicle>
    <vehicle id="89" depart="80100.00" type="v_normal4">
        <route edges="-6.0.00 -7.0.00 14.0.00 -8.0.00" />
    </vehicle>
    <vehicle id="90" depart="81000.00" type="v_normal2">
        <route edges="2.0.00 -25.0.00 9.0.00 -22.0.00 -4.0.00 17.0.00" />
    </vehicle>
    <vehicle id="91" depart="81900.00" type="v_normal2">
        <route edges="9.0.00 21.0.00 2.0.00 1.0.00 0.0.00 -14.0.00" />
    </vehicle>
    <vehicle id="92" depart="82800.00" type="v_normal3">
        <route edges="-6.0.00 19.0.00 18.0.00 17.0.00 16.0.00 -1.0.00 -25.0.00" />
    </vehicle>
    <vehicle id="93" depart="83700.00" type="v_normal4">
        <route edges="25.0.00 -2.0.00 -21.0.00" />
    </vehicle>
    <vehicle id="94" depart="84600.00" type="v_normal1">
        <route edges="-19.0.00 -7.0.00" />
    </vehicle>
    <vehicle id="95" depart="85500.00" type="v_normal0">
        <route edges="-6.0.00 19.0.00 18.0.00 4.0.00 -23.0.00" />
    </vehicle>
</routes>