<?xml version="1.0" encoding="UTF-8"?>

<!-- generated on 2025-05-15 12:23:36.889134 by randomTrips.py UNKNOWN
<configuration>
    <net-file value="town01/osm.net.xml"/>
    <additional-files value="town01/park.add.xml"/>
    <output-trip-file value="town01/randtrips.trips.xml"/>
    <route-file value="town01/randtrips.rou.xml"/>
    <validate value="True"/>
    <end value="86400.0"/>
    <period value="900.0"/>
</configuration>
-->

<!-- generated on 2025-05-15 12:23:36 by Eclipse SUMO duarouter Version 1.23.1
<duarouterConfiguration xmlns:xsi="http://www.w3.org/2001/XMLSchema-instance" xsi:noNamespaceSchemaLocation="http://sumo.dlr.de/xsd/duarouterConfiguration.xsd">

    <input>
        <net-file value="town01/osm.net.xml"/>
        <additional-files value="town01/park.add.xml"/>
        <route-files value="town01/randtrips.trips.xml"/>
    </input>

    <output>
        <output-file value="town01/randtrips.trips.xml.tmp"/>
        <alternatives-output value="NUL"/>
        <write-trips value="true"/>
    </output>

    <time>
        <begin value="0"/>
        <end value="86400.0"/>
    </time>

    <report>
        <no-warnings value="true"/>
        <ignore-errors value="true"/>
        <no-step-log value="true"/>
    </report>

</duarouterConfiguration>
-->

<routes xmlns:xsi="http://www.w3.org/2001/XMLSchema-instance" xsi:noNamespaceSchemaLocation="http://sumo.dlr.de/xsd/routes_file.xsd">
    <trip id="0" depart="0.00" from="16.0.00" to="-10.0.00"/>
    <trip id="1" depart="900.00" from="-23.0.00" to="-2.0.00"/>
    <trip id="2" depart="1800.00" from="2.0.00" to="18.0.00"/>
    <trip id="3" depart="2700.00" from="4.0.00" to="-14.0.00"/>
    <trip id="4" depart="3600.00" from="-6.0.00" to="-10.0.00"/>
    <trip id="5" depart="4500.00" from="-2.0.00" to="0.0.00"/>
    <trip id="6" depart="5400.00" from="-10.0.00" to="-19.0.00"/>
    <trip id="7" depart="6300.00" from="16.0.00" to="1.0.00"/>
    <trip id="8" depart="7200.00" from="-2.0.00" to="12.0.00"/>
    <trip id="9" depart="8100.00" from="23.0.00" to="-1.0.00"/>
    <trip id="10" depart="9000.00" from="23.0.00" to="18.0.00"/>
    <trip id="11" depart="9900.00" from="-25.0.00" to="-18.0.00"/>
    <trip id="12" depart="10800.00" from="7.0.00" to="-25.0.00"/>
    <trip id="13" depart="11700.00" from="-14.0.00" to="-14.0.00"/>
    <trip id="14" depart="12600.00" from="24.0.00" to="14.0.00"/>
    <trip id="15" depart="13500.00" from="23.0.00" to="2.0.00"/>
    <trip id="16" depart="14400.00" from="1.0.00" to="7.0.00"/>
    <trip id="17" depart="15300.00" from="-4.0.00" to="10.0.00"/>
    <trip id="18" depart="16200.00" from="24.0.00" to="14.0.00"/>
    <trip id="19" depart="17100.00" from="25.0.00" to="12.0.00"/>
    <trip id="20" depart="18000.00" from="19.0.00" to="-10.0.00"/>
    <trip id="21" depart="18900.00" from="-21.0.00" to="-23.0.00"/>
    <trip id="22" depart="19800.00" from="-14.0.00" to="-21.0.00"/>
    <trip id="23" depart="20700.00" from="-16.0.00" to="-23.0.00"/>
    <trip id="24" depart="21600.00" from="16.0.00" to="-3.0.00"/>
    <trip id="25" depart="22500.00" from="-3.0.00" to="-2.0.00"/>
    <trip id="26" depart="23400.00" from="-22.0.00" to="6.0.00"/>
    <trip id="27" depart="24300.00" from="16.0.00" to="14.0.00"/>
    <trip id="28" depart="25200.00" from="-18.0.00" to="2.0.00"/>
    <trip id="29" depart="26100.00" from="-18.0.00" to="-4.0.00"/>
    <trip id="30" depart="27000.00" from="9.0.00" to="16.0.00"/>
    <trip id="31" depart="27900.00" from="10.0.00" to="18.0.00"/>
    <trip id="32" depart="28800.00" from="24.0.00" to="22.0.00"/>
    <trip id="33" depart="29700.00" from="-21.0.00" to="-10.0.00"/>
    <trip id="34" depart="30600.00" from="-24.0.00" to="-22.0.00"/>
    <trip id="35" depart="31500.00" from="-2.0.00" to="6.0.00"/>
    <trip id="36" depart="32400.00" from="4.0.00" to="-24.0.00"/>
    <trip id="37" depart="33300.00" from="17.0.00" to="-4.0.00"/>
    <trip id="38" depart="34200.00" from="5.0.00" to="-8.0.00"/>
    <trip id="39" depart="35100.00" from="-22.0.00" to="-21.0.00"/>
    <trip id="40" depart="36000.00" from="10.0.00" to="-22.0.00"/>
    <trip id="41" depart="36900.00" from="12.0.00" to="4.0.00"/>
    <trip id="42" depart="37800.00" from="-4.0.00" to="-2.0.00"/>
    <trip id="43" depart="38700.00" from="9.0.00" to="0.0.00"/>
    <trip id="44" depart="39600.00" from="-14.0.00" to="-10.0.00"/>
    <trip id="45" depart="40500.00" from="-16.0.00" to="16.0.00"/>
    <trip id="46" depart="41400.00" from="22.0.00" to="-6.0.00"/>
    <trip id="47" depart="42300.00" from="-12.0.00" to="-4.0.00"/>
    <trip id="48" depart="43200.00" from="9.0.00" to="1.0.00"/>
    <trip id="49" depart="44100.00" from="7.0.00" to="25.0.00"/>
    <trip id="50" depart="45000.00" from="-1.0.00" to="19.0.00"/>
    <trip id="51" depart="45900.00" from="18.0.00" to="1.0.00"/>
    <trip id="52" depart="46800.00" from="-22.0.00" to="16.0.00"/>
    <trip id="53" depart="47700.00" from="-16.0.00" to="-7.0.00"/>
    <trip id="54" depart="48600.00" from="-8.0.00" to="7.0.00"/>
    <trip id="55" depart="49500.00" from="4.0.00" to="-22.0.00"/>
    <trip id="56" depart="50400.00" from="0.0.00" to="-19.0.00"/>
    <trip id="57" depart="51300.00" from="5.0.00" to="25.0.00"/>
    <trip id="58" depart="52200.00" from="-23.0.00" to="16.0.00"/>
    <trip id="59" depart="53100.00" from="14.0.00" to="-18.0.00"/>
    <trip id="60" depart="54000.00" from="21.0.00" to="1.0.00"/>
    <trip id="61" depart="54900.00" from="22.0.00" to="1.0.00"/>
    <trip id="62" depart="55800.00" from="-1.0.00" to="-24.0.00"/>
    <trip id="63" depart="56700.00" from="-1.0.00" to="6.0.00"/>
    <trip id="64" depart="57600.00" from="4.0.00" to="24.0.00"/>
    <trip id="65" depart="58500.00" from="-24.0.00" to="-12.0.00"/>
    <trip id="66" depart="59400.00" from="4.0.00" to="6.0.00"/>
    <trip id="67" depart="60300.00" from="-14.0.00" to="-9.0.00"/>
    <trip id="68" depart="61200.00" from="-12.0.00" to="21.0.00"/>
    <trip id="69" depart="62100.00" from="21.0.00" to="-17.0.00"/>
    <trip id="70" depart="63000.00" from="-9.0.00" to="1.0.00"/>
    <trip id="71" depart="63900.00" from="-22.0.00" to="25.0.00"/>
    <trip id="72" depart="64800.00" from="-6.0.00" to="-2.0.00"/>
    <trip id="73" depart="65700.00" from="1.0.00" to="2.0.00"/>
    <trip id="74" depart="66600.00" from="-2.0.00" to="-24.0.00"/>
    <trip id="75" depart="67500.00" from="9.0.00" to="16.0.00"/>
    <trip id="76" depart="68400.00" from="-7.0.00" to="0.0.00"/>
    <trip id="77" depart="69300.00" from="-16.0.00" to="-2.0.00"/>
    <trip id="78" depart="70200.00" from="-25.0.00" to="12.0.00"/>
    <trip id="79" depart="71100.00" from="-21.0.00" to="-2.0.00"/>
    <trip id="80" depart="72000.00" from="-12.0.00" to="16.0.00"/>
    <trip id="81" depart="72900.00" from="-21.0.00" to="5.0.00"/>
    <trip id="82" depart="73800.00" from="25.0.00" to="-12.0.00"/>
    <trip id="83" depart="74700.00" from="-21.0.00" to="17.0.00"/>
    <trip id="84" depart="75600.00" from="-2.0.00" to="-17.0.00"/>
    <trip id="85" depart="76500.00" from="6.0.00" to="10.0.00"/>
    <trip id="86" depart="77400.00" from="-8.0.00" to="22.0.00"/>
    <trip id="87" depart="78300.00" from="23.0.00" to="-19.0.00"/>
    <trip id="88" depart="79200.00" from="-14.0.00" to="-7.0.00"/>
    <trip id="89" depart="80100.00" from="-6.0.00" to="-8.0.00"/>
    <trip id="90" depart="81000.00" from="2.0.00" to="17.0.00"/>
    <trip id="91" depart="81900.00" from="9.0.00" to="-14.0.00"/>
    <trip id="92" depart="82800.00" from="-6.0.00" to="-25.0.00"/>
    <trip id="93" depart="83700.00" from="25.0.00" to="-21.0.00"/>
    <trip id="94" depart="84600.00" from="-19.0.00" to="-7.0.00"/>
    <trip id="95" depart="85500.00" from="-6.0.00" to="-23.0.00"/>
</routes>
