<?xml version="1.0" encoding="UTF-8"?>

<!-- generated on 2025-08-20 17:22:05.094725 by randomTrips.py UNKNOWN
<configuration>
    <net-file value="unicamp_routine/osm.net.xml"/>
    <additional-files value="unicamp_routine/park.add.xml"/>
    <route-file value="unicamp_routine/randtrips.rou.xml"/>
    <end value="22000.0"/>
    <period value="50.0"/>
</configuration>
-->

<routes xmlns:xsi="http://www.w3.org/2001/XMLSchema-instance" xsi:noNamespaceSchemaLocation="http://sumo.dlr.de/xsd/routes_file.xsd">
    <trip id="0" depart="0.00" from="72508815#13" to="-183876531#3"/>
    <trip id="1" depart="50.00" from="1388130353" to="-75413343#0"/>
    <trip id="2" depart="100.00" from="75259406#3" to="72644044#1"/>
    <trip id="3" depart="150.00" from="77674922#1" to="-563505769#7"/>
    <trip id="4" depart="200.00" from="447326049#2" to="-223126919#0"/>
    <trip id="5" depart="250.00" from="-75413339#4" to="563505734#2"/>
    <trip id="6" depart="300.00" from="-183876531#3" to="-75413329#0"/>
    <trip id="7" depart="350.00" from="72508815#8" to="689691698#2"/>
    <trip id="8" depart="400.00" from="-75413343#1" to="70200192#5"/>
    <trip id="9" depart="450.00" from="75679319#0" to="-1388130341#3"/>
    <trip id="10" depart="500.00" from="75679312#2" to="72644725#3"/>
    <trip id="11" depart="550.00" from="237036477#23" to="-72644721#4"/>
    <trip id="12" depart="600.00" from="77873286#0" to="237036477#16"/>
    <trip id="13" depart="650.00" from="-564511813#0" to="-70080981#2"/>
    <trip id="14" depart="700.00" from="75701372#4" to="70200195#9"/>
    <trip id="15" depart="750.00" from="75679316#1" to="75259405#7"/>
    <trip id="16" depart="800.00" from="665229944" to="889992192"/>
    <trip id="17" depart="850.00" from="329703620#2" to="693637326#1"/>
    <trip id="18" depart="900.00" from="75679335#4" to="70200199#6"/>
    <trip id="19" depart="950.00" from="75701376#4" to="70056689#6"/>
    <trip id="20" depart="1000.00" from="72644727#0" to="-329703621#8"/>
    <trip id="21" depart="1050.00" from="-75701376#2" to="1388130354#6"/>
    <trip id="22" depart="1100.00" from="-563505769#13" to="-75701376#4"/>
    <trip id="23" depart="1150.00" from="-70200192#1" to="1388130349#1"/>
    <trip id="24" depart="1200.00" from="72508815#1" to="264904736"/>
    <trip id="25" depart="1250.00" from="329703619#3" to="-75413332#1"/>
    <trip id="26" depart="1300.00" from="1388130340#2" to="77674950#2"/>
    <trip id="27" depart="1350.00" from="72508815#6" to="70200197#3"/>
    <trip id="28" depart="1400.00" from="-75259400#3" to="75259405#6"/>
    <trip id="29" depart="1450.00" from="-72644727#0" to="329703619#5"/>
    <trip id="30" depart="1500.00" from="890738229#1" to="72508815#12"/>
    <trip id="31" depart="1550.00" from="693637406#12" to="72644721#0"/>
    <trip id="32" depart="1600.00" from="75701371" to="75416306#5"/>
    <trip id="33" depart="1650.00" from="-75701376#3" to="-223126919#2"/>
    <trip id="34" depart="1700.00" from="183876531#3" to="1388130338#1"/>
    <trip id="35" depart="1750.00" from="-75413336#1" to="77674950#8"/>
    <trip id="36" depart="1800.00" from="769466394#8" to="179051712#2"/>
    <trip id="37" depart="1850.00" from="72508816#4" to="329703621#4"/>
    <trip id="38" depart="1900.00" from="77674945#1" to="447326496#1"/>
    <trip id="39" depart="1950.00" from="1388130339#1" to="-890559138"/>
    <trip id="40" depart="2000.00" from="693637406#2" to="1388130333#1"/>
    <trip id="41" depart="2050.00" from="70200192#4" to="77674922#3"/>
    <trip id="42" depart="2100.00" from="386834059#1" to="-75413339#2"/>
    <trip id="43" depart="2150.00" from="90743683#2" to="563505738#0"/>
    <trip id="44" depart="2200.00" from="-563505769#8" to="-333333538"/>
    <trip id="45" depart="2250.00" from="-70200197#1" to="72508573#12"/>
    <trip id="46" depart="2300.00" from="75679256#9" to="447326048#1"/>
    <trip id="47" depart="2350.00" from="-537232374#2" to="329703619#7"/>
    <trip id="48" depart="2400.00" from="90743683#1" to="563505769#3"/>
    <trip id="49" depart="2450.00" from="889486571#1" to="75701376#1"/>
    <trip id="50" depart="2500.00" from="-147379106#1" to="75259402#1"/>
    <trip id="51" depart="2550.00" from="72644044#5" to="564511813#0"/>
    <trip id="52" depart="2600.00" from="1388130340#2" to="72508815#13"/>
    <trip id="53" depart="2650.00" from="-70200197#3" to="447326049#7"/>
    <trip id="54" depart="2700.00" from="447326496#3" to="77709899#2"/>
    <trip id="55" depart="2750.00" from="769466394#8" to="1388130337#1"/>
    <trip id="56" depart="2800.00" from="563505734#4" to="-75259400#7"/>
    <trip id="57" depart="2850.00" from="77674942#2" to="769466394#1"/>
    <trip id="58" depart="2900.00" from="147419849#3" to="72508815#11"/>
    <trip id="59" depart="2950.00" from="70200199#0" to="-72644721#2"/>
    <trip id="60" depart="3000.00" from="75413340#0" to="664968457#1"/>
    <trip id="61" depart="3050.00" from="75416306#7" to="563505769#4"/>
    <trip id="62" depart="3100.00" from="-1046248579" to="183876531#6"/>
    <trip id="63" depart="3150.00" from="-179051712#2" to="77674947#2"/>
    <trip id="64" depart="3200.00" from="77670431#2" to="75679335#1"/>
    <trip id="65" depart="3250.00" from="179051712#2" to="-537232373"/>
    <trip id="66" depart="3300.00" from="77670431#2" to="77709896#1"/>
    <trip id="67" depart="3350.00" from="-563505769#2" to="535725903#0"/>
    <trip id="68" depart="3400.00" from="-563505734#1" to="75413339#3"/>
    <trip id="69" depart="3450.00" from="75413343#0" to="-72508821#1"/>
    <trip id="70" depart="3500.00" from="535558321#0" to="69321368#3"/>
    <trip id="71" depart="3550.00" from="1388130339#1" to="769466394#10"/>
    <trip id="72" depart="3600.00" from="447326049#3" to="-75413333#1"/>
    <trip id="73" depart="3650.00" from="689691698#1" to="75259405#7"/>
    <trip id="74" depart="3700.00" from="-75413330#3" to="179051712#0"/>
    <trip id="75" depart="3750.00" from="90743683#0" to="72508815#6"/>
    <trip id="76" depart="3800.00" from="447326321#0" to="563505768#2"/>
    <trip id="77" depart="3850.00" from="-70200199#6" to="-75413343#1"/>
    <trip id="78" depart="3900.00" from="237036477#21" to="70200192#4"/>
    <trip id="79" depart="3950.00" from="-75701376#4" to="-75413339#3"/>
    <trip id="80" depart="4000.00" from="-563505734#3" to="72508573#3"/>
    <trip id="81" depart="4050.00" from="-75701376#3" to="77674936#0"/>
    <trip id="82" depart="4100.00" from="75701376#2" to="-563505766#1"/>
    <trip id="83" depart="4150.00" from="-77674920#1" to="72631942#0"/>
    <trip id="84" depart="4200.00" from="-75413339#0" to="-72508821#5"/>
    <trip id="85" depart="4250.00" from="77674950#5" to="70056689#1"/>
    <trip id="86" depart="4300.00" from="535558320#4" to="75679256#1"/>
    <trip id="87" depart="4350.00" from="75679316#2" to="-75259405#6"/>
    <trip id="88" depart="4400.00" from="-70080981#1" to="447326049#4"/>
    <trip id="89" depart="4450.00" from="447326049#4" to="535556338#1"/>
    <trip id="90" depart="4500.00" from="75259405#5" to="72641085#2"/>
    <trip id="91" depart="4550.00" from="890559265#3" to="-70080981#3"/>
    <trip id="92" depart="4600.00" from="386834060#0" to="237036477#18"/>
    <trip id="93" depart="4650.00" from="75701376#4" to="-890738229#0"/>
    <trip id="94" depart="4700.00" from="-75259406#2" to="447326322#1"/>
    <trip id="95" depart="4750.00" from="447326049#2" to="1388130349#1"/>
    <trip id="96" depart="4800.00" from="-90743683#1" to="77674945#6"/>
    <trip id="97" depart="4850.00" from="447326322#2" to="75701376#1"/>
    <trip id="98" depart="4900.00" from="693637328" to="-447326050#1"/>
    <trip id="99" depart="4950.00" from="95011158" to="75679337#1"/>
    <trip id="100" depart="5000.00" from="887737023" to="77674945#8"/>
    <trip id="101" depart="5050.00" from="75701374#1" to="-72644727#1"/>
    <trip id="102" depart="5100.00" from="537232375" to="-75413336#0"/>
    <trip id="103" depart="5150.00" from="386834059#7" to="-537232373"/>
    <trip id="104" depart="5200.00" from="329703620#2" to="890559265#3"/>
    <trip id="105" depart="5250.00" from="1388130339#1" to="75679256#1"/>
    <trip id="106" depart="5300.00" from="447326496#4" to="447326048#1"/>
    <trip id="107" depart="5350.00" from="77873286#0" to="90743683#1"/>
    <trip id="108" depart="5400.00" from="693637406#11" to="75259400#6"/>
    <trip id="109" depart="5450.00" from="-72644721#5" to="147379107#2"/>
    <trip id="110" depart="5500.00" from="886955294" to="70056689#7"/>
    <trip id="111" depart="5550.00" from="69321368#1" to="75413332#0"/>
    <trip id="112" depart="5600.00" from="-447326319#2" to="70200192#1"/>
    <trip id="113" depart="5650.00" from="563505738#1" to="75701374#3"/>
    <trip id="114" depart="5700.00" from="-72644721#7" to="77712876#3"/>
    <trip id="115" depart="5750.00" from="-563505769#13" to="-75259405#2"/>
    <trip id="116" depart="5800.00" from="70200195#3" to="72641085#3"/>
    <trip id="117" depart="5850.00" from="-77652221" to="-70200199#4"/>
    <trip id="118" depart="5900.00" from="77674922#0" to="-890559137#1"/>
    <trip id="119" depart="5950.00" from="70200195#3" to="72508571#0"/>
    <trip id="120" depart="6000.00" from="447326049#10" to="70080981#3"/>
    <trip id="121" depart="6050.00" from="563505769#4" to="77674950#0"/>
    <trip id="122" depart="6100.00" from="-75413331#1" to="75259400#4"/>
    <trip id="123" depart="6150.00" from="-77674920#2" to="329703621#4"/>
    <trip id="124" depart="6200.00" from="72641085#2" to="147379116#4"/>
    <trip id="125" depart="6250.00" from="183876531#4" to="75413333#1"/>
    <trip id="126" depart="6300.00" from="-563505734#4" to="447326496#1"/>
    <trip id="127" depart="6350.00" from="90743683#3" to="90743683#1"/>
    <trip id="128" depart="6400.00" from="-563505766#1" to="-75413336#0"/>
    <trip id="129" depart="6450.00" from="1388130339#1" to="77674947#5"/>
    <trip id="130" depart="6500.00" from="77670431#4" to="769466394#8"/>
    <trip id="131" depart="6550.00" from="329703619#1" to="-72644721#6"/>
    <trip id="132" depart="6600.00" from="75679337#2" to="72644726#2"/>
    <trip id="133" depart="6650.00" from="70200199#2" to="890559266#1"/>
    <trip id="134" depart="6700.00" from="72508816#2" to="-147379106#0"/>
    <trip id="135" depart="6750.00" from="75679325#1" to="147379116#4"/>
    <trip id="136" depart="6800.00" from="72508821#3" to="77674950#5"/>
    <trip id="137" depart="6850.00" from="-72631942#1" to="-70200199#1"/>
    <trip id="138" depart="6900.00" from="-70200192#6" to="693637327#1"/>
    <trip id="139" depart="6950.00" from="1388130349#1" to="70200197#0"/>
    <trip id="140" depart="7000.00" from="75259400#6" to="-75413330#1"/>
    <trip id="141" depart="7050.00" from="72508815#0" to="1388130337#1"/>
    <trip id="142" depart="7100.00" from="537250022" to="77674936#0"/>
    <trip id="143" depart="7150.00" from="75701372#3" to="-664968457#0"/>
    <trip id="144" depart="7200.00" from="447326049#4" to="1388130348#1"/>
    <trip id="145" depart="7250.00" from="-1388130339#1" to="75416306#1"/>
    <trip id="146" depart="7300.00" from="72508815#11" to="1388130333#0"/>
    <trip id="147" depart="7350.00" from="75413329#2" to="693637326#0"/>
    <trip id="148" depart="7400.00" from="447326049#7" to="-147379106#2"/>
    <trip id="149" depart="7450.00" from="-563505767#1" to="77670431#3"/>
    <trip id="150" depart="7500.00" from="77674936#1" to="689691698#2"/>
    <trip id="151" depart="7550.00" from="75679337#2" to="70080981#2"/>
    <trip id="152" depart="7600.00" from="-72644044#6" to="-72508821#1"/>
    <trip id="153" depart="7650.00" from="179051712#2" to="77674924"/>
    <trip id="154" depart="7700.00" from="75679299#0" to="75701376#1"/>
    <trip id="155" depart="7750.00" from="77674929#2" to="-75413332#1"/>
    <trip id="156" depart="7800.00" from="-90743683#1" to="-70200192#3"/>
    <trip id="157" depart="7850.00" from="75679244" to="77670431#4"/>
    <trip id="158" depart="7900.00" from="386834060#12" to="72508571#1"/>
    <trip id="159" depart="7950.00" from="-72644721#5" to="77674947#2"/>
    <trip id="160" depart="8000.00" from="75701376#6" to="890556455#1"/>
    <trip id="161" depart="8050.00" from="75679319#1" to="77670431#2"/>
    <trip id="162" depart="8100.00" from="-183876531#1" to="75259407"/>
    <trip id="163" depart="8150.00" from="237036477#17" to="77674947#3"/>
    <trip id="164" depart="8200.00" from="75679307#4" to="75701376#3"/>
    <trip id="165" depart="8250.00" from="75679319#1" to="1388130337#3"/>
    <trip id="166" depart="8300.00" from="75679256#4" to="-70200193"/>
    <trip id="167" depart="8350.00" from="769466394#4" to="75701374#8"/>
    <trip id="168" depart="8400.00" from="-75413343#2" to="75679319#5"/>
    <trip id="169" depart="8450.00" from="535556338#1" to="147419849#3"/>
    <trip id="170" depart="8500.00" from="75679284#1" to="-75701376#0"/>
    <trip id="171" depart="8550.00" from="-183876531#0" to="-75259406#0"/>
    <trip id="172" depart="8600.00" from="237036477#14" to="75701376#4"/>
    <trip id="173" depart="8650.00" from="77881557#3" to="1388130349#2"/>
    <trip id="174" depart="8700.00" from="72508815#15" to="329703621#7"/>
    <trip id="175" depart="8750.00" from="890559265#1" to="564511813#0"/>
    <trip id="176" depart="8800.00" from="77674950#8" to="-70200199#0"/>
    <trip id="177" depart="8850.00" from="889486571#1" to="-75259400#7"/>
    <trip id="178" depart="8900.00" from="77875431#2" to="1388130337#2"/>
    <trip id="179" depart="8950.00" from="-70200197#0" to="447326049#7"/>
    <trip id="180" depart="9000.00" from="75259405#5" to="179051712#1"/>
    <trip id="181" depart="9050.00" from="70200197#2" to="563505739#0"/>
    <trip id="182" depart="9100.00" from="329703621#1" to="70056689#5"/>
    <trip id="183" depart="9150.00" from="1130964472" to="72644727#2"/>
    <trip id="184" depart="9200.00" from="-1130964472" to="77674945#8"/>
    <trip id="185" depart="9250.00" from="689691698#1" to="75259400#7"/>
    <trip id="186" depart="9300.00" from="75413330#0" to="72631942#1"/>
    <trip id="187" depart="9350.00" from="278132384#1" to="-563505766#1"/>
    <trip id="188" depart="9400.00" from="72508821#4" to="237036477#0"/>
    <trip id="189" depart="9450.00" from="183876531#2" to="75701372#1"/>
    <trip id="190" depart="9500.00" from="75259402#0" to="147379116#4"/>
    <trip id="191" depart="9550.00" from="179051712#3" to="386834059#7"/>
    <trip id="192" depart="9600.00" from="386834060#0" to="147379107#1"/>
    <trip id="193" depart="9650.00" from="-72508821#1" to="386834060#9"/>
    <trip id="194" depart="9700.00" from="77674950#9" to="72644044#1"/>
    <trip id="195" depart="9750.00" from="77674936#0" to="70200199#4"/>
    <trip id="196" depart="9800.00" from="147419849#5" to="69321368#1"/>
    <trip id="197" depart="9850.00" from="-1046248579" to="1388130354#4"/>
    <trip id="198" depart="9900.00" from="447326049#9" to="70080981#0"/>
    <trip id="199" depart="9950.00" from="72508816#4" to="535371826"/>
    <trip id="200" depart="10000.00" from="447326322#1" to="-75413336#0"/>
    <trip id="201" depart="10050.00" from="75679299#0" to="-75259400#0"/>
    <trip id="202" depart="10100.00" from="-563505769#18" to="563505767#1"/>
    <trip id="203" depart="10150.00" from="72508573#6" to="237036477#14"/>
    <trip id="204" depart="10200.00" from="75679328#1" to="75413333#0"/>
    <trip id="205" depart="10250.00" from="72641085#3" to="-75413343#1"/>
    <trip id="206" depart="10300.00" from="-75413330#1" to="-183876531#3"/>
    <trip id="207" depart="10350.00" from="-890559138" to="535558320#0"/>
    <trip id="208" depart="10400.00" from="75701374#3" to="-563505769#0"/>
    <trip id="209" depart="10450.00" from="447326043" to="72508573#13"/>
    <trip id="210" depart="10500.00" from="-75413329#0" to="72644725#2"/>
    <trip id="211" depart="10550.00" from="562096886" to="-889486571#1"/>
    <trip id="212" depart="10600.00" from="72508816#5" to="-1388130341#0"/>
    <trip id="213" depart="10650.00" from="75413333#0" to="75416306#0"/>
    <trip id="214" depart="10700.00" from="-70200192#6" to="447326049#1"/>
    <trip id="215" depart="10750.00" from="-75259400#7" to="77712876#1"/>
    <trip id="216" depart="10800.00" from="563505769#17" to="-447326048#2"/>
    <trip id="217" depart="10850.00" from="-90743683#1" to="75701372#1"/>
    <trip id="218" depart="10900.00" from="447326496#5" to="75679307#2"/>
    <trip id="219" depart="10950.00" from="72631942#1" to="890559266#1"/>
    <trip id="220" depart="11000.00" from="70200195#3" to="77709896#3-AddedOnRampEdge"/>
    <trip id="221" depart="11050.00" from="77674922#1" to="70200199#1"/>
    <trip id="222" depart="11100.00" from="75259402#0" to="563505734#1"/>
    <trip id="223" depart="11150.00" from="75679335#5" to="69321368#1"/>
    <trip id="224" depart="11200.00" from="77674929#1" to="75413330#2"/>
    <trip id="225" depart="11250.00" from="535558320#5" to="1130964472"/>
    <trip id="226" depart="11300.00" from="-890738229#2" to="72508815#1"/>
    <trip id="227" depart="11350.00" from="75413343#0" to="563505769#11"/>
    <trip id="228" depart="11400.00" from="72508573#12" to="1388130341#4"/>
    <trip id="229" depart="11450.00" from="-563505769#1" to="1388130354#3"/>
    <trip id="230" depart="11500.00" from="1388130349#1" to="183876531#1"/>
    <trip id="231" depart="11550.00" from="689691698#2" to="-72641085#2"/>
    <trip id="232" depart="11600.00" from="-75701376#5" to="72644725#0"/>
    <trip id="233" depart="11650.00" from="72644727#1" to="-563505734#0"/>
    <trip id="234" depart="11700.00" from="386834060#13" to="665229944"/>
    <trip id="235" depart="11750.00" from="447326048#1" to="-75413331#1"/>
    <trip id="236" depart="11800.00" from="70200192#4" to="72644725#1"/>
    <trip id="237" depart="11850.00" from="75701376#0" to="75413342"/>
    <trip id="238" depart="11900.00" from="329703620#3" to="-1388130341#0"/>
    <trip id="239" depart="11950.00" from="260761733#1-AddedOnRampEdge" to="75413336#0"/>
    <trip id="240" depart="12000.00" from="75701374#6" to="77709899#2"/>
    <trip id="241" depart="12050.00" from="447326049#10" to="75413331#1"/>
    <trip id="242" depart="12100.00" from="693637326#0" to="70200195#8"/>
    <trip id="243" depart="12150.00" from="-75413343#1" to="-75413339#2"/>
    <trip id="244" depart="12200.00" from="447326319#3" to="-223126919#0"/>
    <trip id="245" depart="12250.00" from="237036477#20" to="72644044#3"/>
    <trip id="246" depart="12300.00" from="386834060#11" to="-72644727#0"/>
    <trip id="247" depart="12350.00" from="535556339#4" to="-72508821#1"/>
    <trip id="248" depart="12400.00" from="72508573#1" to="-183876531#6"/>
    <trip id="249" depart="12450.00" from="329703621#8" to="693637406#15"/>
    <trip id="250" depart="12500.00" from="-183876531#3" to="72508815#14"/>
    <trip id="251" depart="12550.00" from="-72641085#0" to="447326496#4"/>
    <trip id="252" depart="12600.00" from="-447326048#1" to="329703619#5"/>
    <trip id="253" depart="12650.00" from="-75413336#1" to="223126919#0"/>
    <trip id="254" depart="12700.00" from="75413339#4" to="329703619#5"/>
    <trip id="255" depart="12750.00" from="75413333#1" to="75679335#4"/>
    <trip id="256" depart="12800.00" from="-90743683#3" to="-563505769#2"/>
    <trip id="257" depart="12850.00" from="-179051712#2" to="664968457#1"/>
    <trip id="258" depart="12900.00" from="95011158" to="237036477#5"/>
    <trip id="259" depart="12950.00" from="72508815#8" to="75416306#9"/>
    <trip id="260" depart="13000.00" from="72508815#9" to="75413336#1"/>
    <trip id="261" depart="13050.00" from="77709899#1" to="-75413329#0"/>
    <trip id="262" depart="13100.00" from="-179051712#3" to="-72644721#1"/>
    <trip id="263" depart="13150.00" from="-72508821#0" to="72631942#0"/>
    <trip id="264" depart="13200.00" from="693637406#7" to="-75413339#0"/>
    <trip id="265" depart="13250.00" from="72644725#5" to="75413343#1"/>
    <trip id="266" depart="13300.00" from="-75259400#0" to="70200197#2"/>
    <trip id="267" depart="13350.00" from="75413332#0" to="-70200199#0"/>
    <trip id="268" depart="13400.00" from="75679328#1" to="77875431#0"/>
    <trip id="269" depart="13450.00" from="-70200197#0" to="-183876531#4"/>
    <trip id="270" depart="13500.00" from="183876531#0" to="72644044#1"/>
    <trip id="271" depart="13550.00" from="77873286#1" to="329703621#5"/>
    <trip id="272" depart="13600.00" from="75259400#4" to="-563505769#13"/>
    <trip id="273" depart="13650.00" from="72644721#6" to="72508573#11"/>
    <trip id="274" depart="13700.00" from="-70200192#2" to="75416306#2"/>
    <trip id="275" depart="13750.00" from="75701374#3" to="70200195#6"/>
    <trip id="276" depart="13800.00" from="-70200199#6" to="890559265#2"/>
    <trip id="277" depart="13850.00" from="75679256#1" to="237036477#23"/>
    <trip id="278" depart="13900.00" from="447326049#8" to="278132384#1"/>
    <trip id="279" depart="13950.00" from="563505739#1" to="237036477#19"/>
    <trip id="280" depart="14000.00" from="75701374#3" to="75679333#1"/>
    <trip id="281" depart="14050.00" from="-70200192#5" to="77712876#3"/>
    <trip id="282" depart="14100.00" from="72508815#1" to="75679333#7"/>
    <trip id="283" depart="14150.00" from="72644727#2" to="447326049#8"/>
    <trip id="284" depart="14200.00" from="75259406#1" to="77875431#2"/>
    <trip id="285" depart="14250.00" from="1388130348#0" to="75679316#1"/>
    <trip id="286" depart="14300.00" from="689691698#0" to="535558321#1"/>
    <trip id="287" depart="14350.00" from="447326319#3" to="75259406#0"/>
    <trip id="288" depart="14400.00" from="1388130341#3" to="75701374#1"/>
    <trip id="289" depart="14450.00" from="75679335#5" to="-563505769#7"/>
    <trip id="290" depart="14500.00" from="77674915#1" to="-889486571#1"/>
    <trip id="291" depart="14550.00" from="535556339#2" to="70200197#4"/>
    <trip id="292" depart="14600.00" from="329703620#2" to="-183876531#7"/>
    <trip id="293" depart="14650.00" from="75701374#4" to="-75259402#2"/>
    <trip id="294" depart="14700.00" from="-75413336#2" to="75679299#0"/>
    <trip id="295" depart="14750.00" from="237036477#23" to="77652221"/>
    <trip id="296" depart="14800.00" from="72644726#1" to="1388130348#0"/>
    <trip id="297" depart="14850.00" from="-147379106#0" to="77709896#2"/>
    <trip id="298" depart="14900.00" from="-563505769#2" to="75259402#1"/>
    <trip id="299" depart="14950.00" from="537250022" to="75413339#0"/>
    <trip id="300" depart="15000.00" from="72644721#6" to="72508815#3"/>
    <trip id="301" depart="15050.00" from="538031522#1" to="75679256#8"/>
    <trip id="302" depart="15100.00" from="-564511813#0" to="-75413339#4"/>
    <trip id="303" depart="15150.00" from="72644721#7" to="147419849#4"/>
    <trip id="304" depart="15200.00" from="70200192#2" to="535556339#3"/>
    <trip id="305" depart="15250.00" from="564511814" to="447326049#10"/>
    <trip id="306" depart="15300.00" from="75413331#0" to="237036477#1"/>
    <trip id="307" depart="15350.00" from="72644726#2" to="1388130340#1"/>
    <trip id="308" depart="15400.00" from="-90743683#3" to="-70200199#5"/>
    <trip id="309" depart="15450.00" from="-75259407" to="-70200199#4"/>
    <trip id="310" depart="15500.00" from="665220625" to="75413340#0"/>
    <trip id="311" depart="15550.00" from="-75259405#5" to="-75413336#3"/>
    <trip id="312" depart="15600.00" from="537232374#1" to="75259405#2"/>
    <trip id="313" depart="15650.00" from="890559137#0" to="563505769#16"/>
    <trip id="314" depart="15700.00" from="1388130354#6" to="-70200192#1"/>
    <trip id="315" depart="15750.00" from="-75413329#0" to="-75701376#0"/>
    <trip id="316" depart="15800.00" from="-75259405#1" to="-147379107#2"/>
    <trip id="317" depart="15850.00" from="664980266" to="1388130341#4"/>
    <trip id="318" depart="15900.00" from="890556454" to="693637327#1"/>
    <trip id="319" depart="15950.00" from="72644725#4" to="-72508821#0"/>
    <trip id="320" depart="16000.00" from="769466394#10" to="537232374#1"/>
    <trip id="321" depart="16050.00" from="769466394#4" to="70056689#3"/>
    <trip id="322" depart="16100.00" from="535558320#1" to="447326319#1"/>
    <trip id="323" depart="16150.00" from="-75259405#5" to="-447326050#1"/>
    <trip id="324" depart="16200.00" from="77674950#9" to="535558320#2"/>
    <trip id="325" depart="16250.00" from="75679333#4" to="329703621#8"/>
    <trip id="326" depart="16300.00" from="-563505766#1" to="72508573#13"/>
    <trip id="327" depart="16350.00" from="-447326050#1" to="-72644044#6"/>
    <trip id="328" depart="16400.00" from="693637406#3" to="147419849#2"/>
    <trip id="329" depart="16450.00" from="906065938" to="-70200199#3"/>
    <trip id="330" depart="16500.00" from="75413342" to="70200197#1"/>
    <trip id="331" depart="16550.00" from="75679256#8" to="-75413343#2"/>
    <trip id="332" depart="16600.00" from="563505769#3" to="447326322#2"/>
    <trip id="333" depart="16650.00" from="447326322#2" to="75701376#0"/>
    <trip id="334" depart="16700.00" from="890738229#1" to="147419849#4"/>
    <trip id="335" depart="16750.00" from="72508573#0" to="70200197#4"/>
    <trip id="336" depart="16800.00" from="75413329#1" to="77709896#2"/>
    <trip id="337" depart="16850.00" from="-75413333#0" to="-75413333#0"/>
    <trip id="338" depart="16900.00" from="72508821#1" to="-72644721#5"/>
    <trip id="339" depart="16950.00" from="-75259400#5" to="-563505769#11"/>
    <trip id="340" depart="17000.00" from="-1388130339#1" to="447326322#2"/>
    <trip id="341" depart="17050.00" from="70200195#2" to="147379106#1"/>
    <trip id="342" depart="17100.00" from="-75701376#5" to="72644727#1"/>
    <trip id="343" depart="17150.00" from="72644726#2" to="447326322#5"/>
    <trip id="344" depart="17200.00" from="72644721#3" to="77674945#6"/>
    <trip id="345" depart="17250.00" from="75679256#4" to="72508573#10"/>
    <trip id="346" depart="17300.00" from="72508821#1" to="77674947#5"/>
    <trip id="347" depart="17350.00" from="447326049#5" to="689691698#2"/>
    <trip id="348" depart="17400.00" from="72508815#6" to="77674936#2"/>
    <trip id="349" depart="17450.00" from="75679333#8" to="-563505767#1"/>
    <trip id="350" depart="17500.00" from="-72644727#2" to="147419849#5"/>
    <trip id="351" depart="17550.00" from="75413332#1" to="693637406#7"/>
    <trip id="352" depart="17600.00" from="147379107#1" to="-72508571#1"/>
    <trip id="353" depart="17650.00" from="72644721#4" to="72644725#5"/>
    <trip id="354" depart="17700.00" from="77709896#1" to="562096883"/>
    <trip id="355" depart="17750.00" from="562096883" to="-563505769#17"/>
    <trip id="356" depart="17800.00" from="-329703621#1" to="447326049#5"/>
    <trip id="357" depart="17850.00" from="223126919#2" to="-890738229#2"/>
    <trip id="358" depart="17900.00" from="75679337#4" to="70056689#4"/>
    <trip id="359" depart="17950.00" from="77709899#2" to="95011158"/>
    <trip id="360" depart="18000.00" from="72641085#3" to="1388130339#1"/>
    <trip id="361" depart="18050.00" from="-329703621#1" to="75413336#3"/>
    <trip id="362" depart="18100.00" from="535558320#2" to="72508815#8"/>
    <trip id="363" depart="18150.00" from="77674945#2" to="-75259402#1"/>
    <trip id="364" depart="18200.00" from="70200192#5" to="72508573#6"/>
    <trip id="365" depart="18250.00" from="539410728" to="-564511814"/>
    <trip id="366" depart="18300.00" from="237036477#8" to="237036477#13"/>
    <trip id="367" depart="18350.00" from="72641085#1" to="75701374#7"/>
    <trip id="368" depart="18400.00" from="237036477#15" to="72644725#0"/>
    <trip id="369" depart="18450.00" from="147379107#0" to="77709896#0"/>
    <trip id="370" depart="18500.00" from="75679319#4" to="69321368#3"/>
    <trip id="371" depart="18550.00" from="447326496#4" to="179051712#2"/>
    <trip id="372" depart="18600.00" from="237036477#0" to="887737023"/>
    <trip id="373" depart="18650.00" from="386834060#1" to="563505767#1"/>
    <trip id="374" depart="18700.00" from="890738229#0" to="72508816#5"/>
    <trip id="375" depart="18750.00" from="69321368#1" to="386834060#12"/>
    <trip id="376" depart="18800.00" from="-75259405#7" to="260761733#4"/>
    <trip id="377" depart="18850.00" from="75413336#3" to="72508573#10"/>
    <trip id="378" depart="18900.00" from="75413339#3" to="-75413330#1"/>
    <trip id="379" depart="18950.00" from="693637327#2" to="77674947#0"/>
    <trip id="380" depart="19000.00" from="447326321#0" to="72644725#3"/>
    <trip id="381" depart="19050.00" from="-70200199#6" to="889992192"/>
    <trip id="382" depart="19100.00" from="70200199#0" to="-77674920#1"/>
    <trip id="383" depart="19150.00" from="-72644726#0" to="693637326#0"/>
    <trip id="384" depart="19200.00" from="693637397#1" to="-664968457#1"/>
    <trip id="385" depart="19250.00" from="906049246" to="77674942#0"/>
    <trip id="386" depart="19300.00" from="535556338#2" to="-70200199#2"/>
    <trip id="387" depart="19350.00" from="75679337#0" to="538031522#0"/>
    <trip id="388" depart="19400.00" from="75259400#6" to="563505738#0"/>
    <trip id="389" depart="19450.00" from="1388130349#2" to="75679337#0"/>
    <trip id="390" depart="19500.00" from="890559265#0" to="-889486571#1"/>
    <trip id="391" depart="19550.00" from="693637328" to="329703620#1"/>
    <trip id="392" depart="19600.00" from="77674945#7" to="563505734#4"/>
    <trip id="393" depart="19650.00" from="77670431#3" to="75701376#3"/>
    <trip id="394" depart="19700.00" from="1388130354#0" to="75679256#6"/>
    <trip id="395" depart="19750.00" from="447326043" to="77674950#0"/>
    <trip id="396" depart="19800.00" from="563505767#1" to="75679328#1"/>
    <trip id="397" depart="19850.00" from="1388130354#6" to="147379116#2"/>
    <trip id="398" depart="19900.00" from="70200192#6" to="95011158"/>
    <trip id="399" depart="19950.00" from="538031522#0" to="-72644044#5"/>