<?xml version="1.0" encoding="UTF-8"?>

<!-- generated on 2024-09-26 11:23:26.365807 by osmWebWizard.py UNKNOWN
<configuration>
    <net-file value="/home/renan/Sumo/2024-09-26-11-23-20/osm.net.xml.gz"/>
    <output-trip-file value="/home/renan/Sumo/2024-09-26-11-23-20/osm.bus.trips.xml"/>
    <route-file value="/home/renan/Sumo/2024-09-26-11-23-20/osm.bus.rou.xml"/>
    <prefix value="bus"/>
    <trip-attributes value="departLane=&quot;best&quot;"/>
    <fringe-start-attributes value="departSpeed=&quot;max&quot;"/>
    <vehicle-class value="bus"/>
    <fringe-factor value="5"/>
    <vclass value="bus"/>
    <via-edge-types value="highway.motorway,highway.motorway_link,highway.trunk_link,highway.primary_link,highway.secondary_link,highway.tertiary_link"/>
    <min-distance value="600.0"/>
    <min-distance.fringe value="10.0"/>
    <remove-loops value="True"/>
    <validate value="True"/>
    <insertion-density value="4.0"/>
</configuration>
-->

<!-- generated on 2024-09-26 11:23:26 by Eclipse SUMO duarouter Version 1.20.0
<configuration xmlns:xsi="http://www.w3.org/2001/XMLSchema-instance" xsi:noNamespaceSchemaLocation="http://sumo.dlr.de/xsd/duarouterConfiguration.xsd">

    <input>
        <net-file value="/home/renan/Sumo/2024-09-26-11-23-20/osm.net.xml.gz"/>
        <route-files value="/home/renan/Sumo/2024-09-26-11-23-20/osm.bus.trips.xml"/>
    </input>

    <output>
        <output-file value="/home/renan/Sumo/2024-09-26-11-23-20/osm.bus.trips.xml.tmp"/>
        <alternatives-output value="NUL"/>
        <write-trips value="true"/>
    </output>

    <processing>
        <remove-loops value="true"/>
    </processing>

    <time>
        <begin value="0.0"/>
        <end value="3600.0"/>
    </time>

    <report>
        <no-warnings value="true"/>
        <ignore-errors value="true"/>
        <no-step-log value="true"/>
    </report>

</configuration>
-->

<routes xmlns:xsi="http://www.w3.org/2001/XMLSchema-instance" xsi:noNamespaceSchemaLocation="http://sumo.dlr.de/xsd/routes_file.xsd">
    <vType id="bus_bus" vClass="bus"/>
    <trip id="bus0" type="bus_bus" depart="0.00" departLane="best" from="70200195#3" to="-147412859#2"/>
    <trip id="bus1" type="bus_bus" depart="5.47" departLane="best" from="85701982" to="-77783501#0"/>
    <trip id="bus2" type="bus_bus" depart="10.93" departLane="best" from="-78684178#0" to="-563505740#3"/>
    <trip id="bus3" type="bus_bus" depart="16.40" departLane="best" from="237036477#18" to="-147412875#0"/>
    <trip id="bus4" type="bus_bus" depart="21.87" departLane="best" from="-77674920#2" to="563505734#4"/>
    <trip id="bus5" type="bus_bus" depart="27.33" departLane="best" from="-147419826#4" to="-75701376#5"/>
    <trip id="bus6" type="bus_bus" depart="32.80" departLane="best" from="70200199#0" to="689691698#12"/>
    <trip id="bus7" type="bus_bus" depart="38.26" departLane="best" from="77674945#2" to="-1054468192#3"/>
    <trip id="bus8" type="bus_bus" depart="43.73" departLane="best" from="77674938#3" to="75259406#1"/>

</routes>
