<?xml version="1.0" encoding="UTF-8"?>

<!-- generated on 2024-09-26 11:23:29.943030 by osmWebWizard.py UNKNOWN
<configuration>
    <net-file value="/home/renan/Sumo/2024-09-26-11-23-20/osm.net.xml.gz"/>
    <additional-files value="/home/renan/Sumo/2024-09-26-11-23-20/osm_stops.add.xml,/home/renan/Sumo/2024-09-26-11-23-20/osm_pt.rou.xml"/>
    <output-trip-file value="/home/renan/Sumo/2024-09-26-11-23-20/osm.pedestrian.trips.xml"/>
    <route-file value="/home/renan/Sumo/2024-09-26-11-23-20/osm.pedestrian.rou.xml"/>
    <persontrips value="True"/>
    <persontrip.walk-opposite-factor value="0.8"/>
    <prefix value="ped"/>
    <trip-attributes value="modes=&quot;public&quot;"/>
    <vehicle-class value="pedestrian"/>
    <fringe-factor value="1"/>
    <insertion-density value="10.0"/>
    <duarouter-weights.tls-penalty value="20"/>
</configuration>
-->

<routes xmlns:xsi="http://www.w3.org/2001/XMLSchema-instance" xsi:noNamespaceSchemaLocation="http://sumo.dlr.de/xsd/routes_file.xsd">
    <vType id="ped_pedestrian" vClass="pedestrian"/>

    <!-- THIS FILE IS ONLY USED TO DEFINE WHERE AND TO A PEDESTRIAN SHOULD GO, THE DUAROUTER IS RESPONSIBLE FOR CREATING THE ROUTE AND THE ROUTES GENERATED GO TO osm.pedestrian.rou.xml -->
    <person id="ped0" depart="0.00" type="ped_pedestrian">
        <personTrip from="841330477#1" to="-841330473#2" modes="public"/>
    </person>

</routes>
