<?xml version="1.0" encoding="UTF-8"?>

<!-- generated on 2024-09-26 11:23:23 by Eclipse SUMO netconvert Version 1.20.0
<configuration xmlns:xsi="http://www.w3.org/2001/XMLSchema-instance" xsi:noNamespaceSchemaLocation="http://sumo.dlr.de/xsd/netconvertConfiguration.xsd">

    <input>
        <type-files value="${SUMO_HOME}/data/typemap/osmNetconvert.typ.xml,${SUMO_HOME}/data/typemap/osmNetconvertUrbanDe.typ.xml,${SUMO_HOME}/data/typemap/osmNetconvertPedestrians.typ.xml,${SUMO_HOME}/data/typemap/osmNetconvertAerialway.typ.xml"/>
        <osm-files value="osm_bbox.osm.xml.gz"/>
    </input>

    <output>
        <output-file value="osm.net.xml.gz"/>
        <output.street-names value="true"/>
        <output.original-names value="true"/>
        <ptstop-output value="osm_stops.add.xml"/>
        <ptline-output value="osm_ptlines.xml"/>
    </output>

    <projection>
        <proj.utm value="true"/>
    </projection>

    <processing>
        <geometry.remove value="true"/>
        <roundabouts.guess value="true"/>
    </processing>

    <tls_building>
        <tls.discard-simple value="true"/>
        <tls.join value="true"/>
        <tls.guess-signals value="true"/>
        <tls.default-type value="actuated"/>
    </tls_building>

    <ramp_guessing>
        <ramps.guess value="true"/>
    </ramp_guessing>

    <junctions>
        <junctions.join value="true"/>
        <junctions.corner-detail value="5"/>
    </junctions>

    <pedestrian>
        <crossings.guess value="true"/>
    </pedestrian>

    <railway>
        <railway.topology.repair value="true"/>
    </railway>

    <formats>
        <osm.sidewalks value="true"/>
    </formats>

</configuration>
-->

<additional xmlns:xsi="http://www.w3.org/2001/XMLSchema-instance" xsi:noNamespaceSchemaLocation="http://sumo.dlr.de/xsd/additional_file.xsd">
    <busStop id="2749645996" name="CRECHE" lane="77873286#4_0" startPos="0.00" endPos="15.00" friendlyPos="true">
        <access lane="-890025927#0_0" pos="12.41" length="143.84" friendlyPos="1"/>
        <access lane="-890025929#1_0" pos="0.00" length="115.00" friendlyPos="1"/>
        <access lane="307671386_0" pos="18.37" length="95.87" friendlyPos="1"/>
        <access lane="890025927#0_0" pos="45.63" length="139.04" friendlyPos="1"/>
        <access lane="890025929#1_0" pos="71.48" length="110.27" friendlyPos="1"/>
    </busStop>
    <busStop id="3901908533" lane="447326322#4_0" startPos="135.69" endPos="150.69" friendlyPos="true">
        <access lane="-850495240_0" pos="18.92" length="52.04" friendlyPos="1"/>
        <access lane="-850495242_0" pos="135.80" length="30.94" friendlyPos="1"/>
        <access lane="1106471669_0" pos="0.00" length="41.11" friendlyPos="1"/>
        <access lane="850495240_0" pos="0.00" length="55.00" friendlyPos="1"/>
        <access lane="850495242_0" pos="0.00" length="31.16" friendlyPos="1"/>
    </busStop>
    <parkingArea id="pa-1046248579#0" lane="-1046248579#0_0" roadsideCapacity="94" length="5"/>
    <parkingArea id="pa-1046248579#1" lane="-1046248579#1_0" roadsideCapacity="30" length="5"/>
    <parkingArea id="pa-1046248579#2" lane="-1046248579#2_0" roadsideCapacity="1" length="5"/>
    <parkingArea id="pa-1047718297" lane="-1047718297_0" roadsideCapacity="22" length="5"/>
    <parkingArea id="pa-1054468186" lane="-1054468186_0" roadsideCapacity="34" length="5"/>
    <parkingArea id="pa-1054468192#0" lane="-1054468192#0_0" roadsideCapacity="28" length="5"/>
    <parkingArea id="pa-1054468192#1" lane="-1054468192#1_0" roadsideCapacity="38" length="5"/>
    <parkingArea id="pa-1054468192#2" lane="-1054468192#2_0" roadsideCapacity="9" length="5"/>
    <parkingArea id="pa-1054468192#3" lane="-1054468192#3_0" roadsideCapacity="61" length="5"/>
    <parkingArea id="pa-1075116935#0" lane="-1075116935#0_0" roadsideCapacity="8" length="5"/>
    <parkingArea id="pa-1075116935#1" lane="-1075116935#1_0" roadsideCapacity="4" length="5"/>
    <parkingArea id="pa-1081222347" lane="-1081222347_0" roadsideCapacity="120" length="5"/>
    <parkingArea id="pa-1203381725" lane="-1203381725_0" roadsideCapacity="27" length="5"/>
    <parkingArea id="pa-147379106#0" lane="-147379106#0_0" roadsideCapacity="25" length="5"/>
    <parkingArea id="pa-147379106#1" lane="-147379106#1_0" roadsideCapacity="24" length="5"/>
    <parkingArea id="pa-147379106#2" lane="-147379106#2_0" roadsideCapacity="19" length="5"/>
    <parkingArea id="pa-147379107#0" lane="-147379107#0_0" roadsideCapacity="24" length="5"/>
    <parkingArea id="pa-147379107#1" lane="-147379107#1_0" roadsideCapacity="25" length="5"/>
    <parkingArea id="pa-147379107#2" lane="-147379107#2_0" roadsideCapacity="22" length="5"/>
    <parkingArea id="pa-147379108#0" lane="-147379108#0_0" roadsideCapacity="9" length="5"/>
    <parkingArea id="pa-147379108#1" lane="-147379108#1_0" roadsideCapacity="9" length="5"/>
    <parkingArea id="pa-147379108#2" lane="-147379108#2_0" roadsideCapacity="9" length="5"/>
    <parkingArea id="pa-147379108#3" lane="-147379108#3_0" roadsideCapacity="5" length="5"/>
    <parkingArea id="pa-147379108#4" lane="-147379108#4_0" roadsideCapacity="41" length="5"/>
    <parkingArea id="pa-147379112#0" lane="-147379112#0_0" roadsideCapacity="24" length="5"/>
    <parkingArea id="pa-147379112#1" lane="-147379112#1_0" roadsideCapacity="31" length="5"/>
    <parkingArea id="pa-147379114#0" lane="-147379114#0_0" roadsideCapacity="24" length="5"/>
    <parkingArea id="pa-147379114#1" lane="-147379114#1_0" roadsideCapacity="25" length="5"/>
    <parkingArea id="pa-147412853#0" lane="-147412853#0_0" roadsideCapacity="25" length="5"/>
    <parkingArea id="pa-147412853#1" lane="-147412853#1_0" roadsideCapacity="14" length="5"/>
    <parkingArea id="pa-147412853#5" lane="-147412853#5_0" roadsideCapacity="17" length="5"/>
    <parkingArea id="pa-147412859#0" lane="-147412859#0_0" roadsideCapacity="53" length="5"/>
    <parkingArea id="pa-147412859#1" lane="-147412859#1_0" roadsideCapacity="25" length="5"/>
    <parkingArea id="pa-147412859#2" lane="-147412859#2_0" roadsideCapacity="5" length="5"/>
    <parkingArea id="pa-147412866#0" lane="-147412866#0_0" roadsideCapacity="53" length="5"/>
    <parkingArea id="pa-147412866#1" lane="-147412866#1_0" roadsideCapacity="24" length="5"/>
    <parkingArea id="pa-147412866#2" lane="-147412866#2_0" roadsideCapacity="17" length="5"/>
    <parkingArea id="pa-147412875#0" lane="-147412875#0_0" roadsideCapacity="159" length="5"/>
    <parkingArea id="pa-147412875#1" lane="-147412875#1_0" roadsideCapacity="24" length="5"/>
    <parkingArea id="pa-147412875#2" lane="-147412875#2_0" roadsideCapacity="12" length="5"/>
    <parkingArea id="pa-147416171#0" lane="-147416171#0_0" roadsideCapacity="12" length="5"/>
    <parkingArea id="pa-147416171#1" lane="-147416171#1_0" roadsideCapacity="41" length="5"/>
    <parkingArea id="pa-147419826#0" lane="-147419826#0_0" roadsideCapacity="30" length="5"/>
    <parkingArea id="pa-147419826#1" lane="-147419826#1_0" roadsideCapacity="5" length="5"/>
    <parkingArea id="pa-147419826#2" lane="-147419826#2_0" roadsideCapacity="14" length="5"/>
    <parkingArea id="pa-147419826#4" lane="-147419826#4_0" roadsideCapacity="22" length="5"/>
    <parkingArea id="pa-147419826#5" lane="-147419826#5_0" roadsideCapacity="27" length="5"/>
    <parkingArea id="pa-147419852#0" lane="-147419852#0_0" roadsideCapacity="9" length="5"/>
    <parkingArea id="pa-147419852#1" lane="-147419852#1_0" roadsideCapacity="12" length="5"/>
    <parkingArea id="pa-147419852#2" lane="-147419852#2_0" roadsideCapacity="12" length="5"/>
    <parkingArea id="pa-147419852#3" lane="-147419852#3_0" roadsideCapacity="5" length="5"/>
    <parkingArea id="pa-179051712#0" lane="-179051712#0_0" roadsideCapacity="12" length="5"/>
    <parkingArea id="pa-179051712#1" lane="-179051712#1_0" roadsideCapacity="26" length="5"/>
    <parkingArea id="pa-179051712#2" lane="-179051712#2_0" roadsideCapacity="26" length="5"/>
    <parkingArea id="pa-179051712#3" lane="-179051712#3_0" roadsideCapacity="6" length="5"/>
    <parkingArea id="pa-179051712#4" lane="-179051712#4_0" roadsideCapacity="9" length="5"/>
    <parkingArea id="pa-183876531#0" lane="-183876531#0_0" roadsideCapacity="1" length="5"/>
    <parkingArea id="pa-183876531#1" lane="-183876531#1_0" roadsideCapacity="4" length="5"/>
    <parkingArea id="pa-183876531#2" lane="-183876531#2_0" roadsideCapacity="3" length="5"/>
    <parkingArea id="pa-183876531#3" lane="-183876531#3_0" roadsideCapacity="4" length="5"/>
    <parkingArea id="pa-183876531#4" lane="-183876531#4_0" roadsideCapacity="3" length="5"/>
    <parkingArea id="pa-183876531#6" lane="-183876531#6_0" roadsideCapacity="7" length="5"/>
    <parkingArea id="pa-183876531#7" lane="-183876531#7_0" roadsideCapacity="15" length="5"/>
    <parkingArea id="pa-197940943#0" lane="-197940943#0_0" roadsideCapacity="10" length="5"/>
    <parkingArea id="pa-197940943#1" lane="-197940943#1_0" roadsideCapacity="32" length="5"/>
    <parkingArea id="pa-220996670#0" lane="-220996670#0_0" roadsideCapacity="13" length="5"/>
    <parkingArea id="pa-220996670#1" lane="-220996670#1_0" roadsideCapacity="1" length="5"/>
    <parkingArea id="pa-220996673" lane="-220996673_0" roadsideCapacity="23" length="5"/>
    <parkingArea id="pa-223126919#0" lane="-223126919#0_0" roadsideCapacity="25" length="5"/>
    <parkingArea id="pa-223126919#1" lane="-223126919#1_0" roadsideCapacity="25" length="5"/>
    <parkingArea id="pa-223126919#2" lane="-223126919#2_0" roadsideCapacity="20" length="5"/>
    <parkingArea id="pa-223126921" lane="-223126921_0" roadsideCapacity="14" length="5"/>
    <parkingArea id="pa-329703621#0" lane="-329703621#0_0" roadsideCapacity="3" length="5"/>
    <parkingArea id="pa-329703621#1" lane="-329703621#1_0" roadsideCapacity="10" length="5"/>
    <parkingArea id="pa-329703621#2" lane="-329703621#2_0" roadsideCapacity="9" length="5"/>
    <parkingArea id="pa-329703621#3" lane="-329703621#3_0" roadsideCapacity="11" length="5"/>
    <parkingArea id="pa-329703621#4" lane="-329703621#4_0" roadsideCapacity="2" length="5"/>
    <parkingArea id="pa-329703621#5" lane="-329703621#5_0" roadsideCapacity="14" length="5"/>
    <parkingArea id="pa-329703621#6" lane="-329703621#6_0" roadsideCapacity="2" length="5"/>
    <parkingArea id="pa-329703621#7" lane="-329703621#7_0" roadsideCapacity="1" length="5"/>
    <parkingArea id="pa-329703621#8" lane="-329703621#8_0" roadsideCapacity="8" length="5"/>
    <parkingArea id="pa-333333538" lane="-333333538_0" roadsideCapacity="24" length="5"/>
    <parkingArea id="pa-365875108" lane="-365875108_0" roadsideCapacity="2" length="5"/>
    <parkingArea id="pa-365875109#0" lane="-365875109#0_0" roadsideCapacity="10" length="5"/>
    <parkingArea id="pa-365875109#1" lane="-365875109#1_0" roadsideCapacity="1" length="5"/>
    <parkingArea id="pa-365875110#0" lane="-365875110#0_0" roadsideCapacity="5" length="5"/>
    <parkingArea id="pa-365875110#1" lane="-365875110#1_0" roadsideCapacity="3" length="5"/>
    <parkingArea id="pa-365875111" lane="-365875111_0" roadsideCapacity="6" length="5"/>
    <parkingArea id="pa-419238469#0" lane="-419238469#0_0" roadsideCapacity="10" length="5"/>
    <parkingArea id="pa-419238469#1" lane="-419238469#1_0" roadsideCapacity="12" length="5"/>
    <parkingArea id="pa-430268897" lane="-430268897_0" roadsideCapacity="14" length="5"/>
    <parkingArea id="pa-447326048#1" lane="-447326048#1_0" roadsideCapacity="13" length="5"/>
    <parkingArea id="pa-447326048#2" lane="-447326048#2_0" roadsideCapacity="7" length="5"/>
    <parkingArea id="pa-447326048#5" lane="-447326048#5_0" roadsideCapacity="2" length="5"/>
    <parkingArea id="pa-447326048#6" lane="-447326048#6_0" roadsideCapacity="16" length="5"/>
    <parkingArea id="pa-447326050#1" lane="-447326050#1_0" roadsideCapacity="8" length="5"/>
    <parkingArea id="pa-447326319#1" lane="-447326319#1_0" roadsideCapacity="3" length="5"/>
    <parkingArea id="pa-447326319#2" lane="-447326319#2_0" roadsideCapacity="2" length="5"/>
    <parkingArea id="pa-447326319#3" lane="-447326319#3_0" roadsideCapacity="11" length="5"/>
    <parkingArea id="pa-447326319#4" lane="-447326319#4_0" roadsideCapacity="5" length="5"/>
    <parkingArea id="pa-533682528#0" lane="-533682528#0_0" roadsideCapacity="103" length="5"/>
    <parkingArea id="pa-533682528#1" lane="-533682528#1_0" roadsideCapacity="18" length="5"/>
    <parkingArea id="pa-533682528#2" lane="-533682528#2_0" roadsideCapacity="24" length="5"/>
    <parkingArea id="pa-533682528#3" lane="-533682528#3_0" roadsideCapacity="8" length="5"/>
    <parkingArea id="pa-533682528#4" lane="-533682528#4_0" roadsideCapacity="7" length="5"/>
    <parkingArea id="pa-533682528#5" lane="-533682528#5_0" roadsideCapacity="2" length="5"/>
    <parkingArea id="pa-533682528#6" lane="-533682528#6_0" roadsideCapacity="8" length="5"/>
    <parkingArea id="pa-533682528#7" lane="-533682528#7_0" roadsideCapacity="23" length="5"/>
    <parkingArea id="pa-537232373" lane="-537232373_0" roadsideCapacity="33" length="5"/>
    <parkingArea id="pa-537232374#0" lane="-537232374#0_0" roadsideCapacity="22" length="5"/>
    <parkingArea id="pa-537232374#1" lane="-537232374#1_0" roadsideCapacity="11" length="5"/>
    <parkingArea id="pa-537232374#2" lane="-537232374#2_0" roadsideCapacity="23" length="5"/>
    <parkingArea id="pa-537232375" lane="-537232375_0" roadsideCapacity="14" length="5"/>
    <parkingArea id="pa-537232376" lane="-537232376_0" roadsideCapacity="13" length="5"/>
    <parkingArea id="pa-538971324" lane="-538971324_0" roadsideCapacity="5" length="5"/>
    <parkingArea id="pa-538971328" lane="-538971328_0" roadsideCapacity="41" length="5"/>
    <parkingArea id="pa-539409504" lane="-539409504_0" roadsideCapacity="8" length="5"/>
    <parkingArea id="pa-539691352#0" lane="-539691352#0_0" roadsideCapacity="6" length="5"/>
    <parkingArea id="pa-539691352#1" lane="-539691352#1_0" roadsideCapacity="11" length="5"/>
    <parkingArea id="pa-563505734#0" lane="-563505734#0_0" roadsideCapacity="19" length="5"/>
    <parkingArea id="pa-563505734#1" lane="-563505734#1_0" roadsideCapacity="24" length="5"/>
    <parkingArea id="pa-563505734#2" lane="-563505734#2_0" roadsideCapacity="14" length="5"/>
    <parkingArea id="pa-563505734#3" lane="-563505734#3_0" roadsideCapacity="7" length="5"/>
    <parkingArea id="pa-563505734#4" lane="-563505734#4_0" roadsideCapacity="19" length="5"/>
    <parkingArea id="pa-563505737#0" lane="-563505737#0_0" roadsideCapacity="23" length="5"/>
    <parkingArea id="pa-563505737#1" lane="-563505737#1_0" roadsideCapacity="24" length="5"/>
    <parkingArea id="pa-563505737#2" lane="-563505737#2_0" roadsideCapacity="25" length="5"/>
    <parkingArea id="pa-563505740#1" lane="-563505740#1_0" roadsideCapacity="1" length="5"/>
    <parkingArea id="pa-563505740#3" lane="-563505740#3_0" roadsideCapacity="19" length="5"/>
    <parkingArea id="pa-563505756#1" lane="-563505756#1_0" roadsideCapacity="26" length="5"/>
    <parkingArea id="pa-563505756#2" lane="-563505756#2_0" roadsideCapacity="33" length="5"/>
    <parkingArea id="pa-563505758" lane="-563505758_0" roadsideCapacity="2" length="5"/>
    <parkingArea id="pa-563505765#0" lane="-563505765#0_0" roadsideCapacity="10" length="5"/>
    <parkingArea id="pa-563505765#1" lane="-563505765#1_0" roadsideCapacity="13" length="5"/>
    <parkingArea id="pa-563505765#2" lane="-563505765#2_0" roadsideCapacity="9" length="5"/>
    <parkingArea id="pa-563505765#3" lane="-563505765#3_0" roadsideCapacity="10" length="5"/>
    <parkingArea id="pa-563505765#4" lane="-563505765#4_0" roadsideCapacity="11" length="5"/>
    <parkingArea id="pa-563505765#5" lane="-563505765#5_0" roadsideCapacity="10" length="5"/>
    <parkingArea id="pa-563505765#6" lane="-563505765#6_0" roadsideCapacity="10" length="5"/>
    <parkingArea id="pa-563505765#7" lane="-563505765#7_0" roadsideCapacity="11" length="5"/>
    <parkingArea id="pa-563505765#8" lane="-563505765#8_0" roadsideCapacity="10" length="5"/>
    <parkingArea id="pa-563505766#1" lane="-563505766#1_0" roadsideCapacity="22" length="5"/>
    <parkingArea id="pa-563505767#1" lane="-563505767#1_0" roadsideCapacity="37" length="5"/>
    <parkingArea id="pa-563505769#1" lane="-563505769#1_0" roadsideCapacity="6" length="5"/>
    <parkingArea id="pa-563505769#10" lane="-563505769#10_0" roadsideCapacity="2" length="5"/>
    <parkingArea id="pa-563505769#13" lane="-563505769#13_0" roadsideCapacity="12" length="5"/>
    <parkingArea id="pa-563505769#15" lane="-563505769#15_0" roadsideCapacity="5" length="5"/>
    <parkingArea id="pa-563505769#18" lane="-563505769#18_0" roadsideCapacity="4" length="5"/>
    <parkingArea id="pa-563505769#2" lane="-563505769#2_0" roadsideCapacity="12" length="5"/>
    <parkingArea id="pa-563505769#20" lane="-563505769#20_0" roadsideCapacity="12" length="5"/>
    <parkingArea id="pa-563505769#3" lane="-563505769#3_0" roadsideCapacity="9" length="5"/>
    <parkingArea id="pa-563505769#4" lane="-563505769#4_0" roadsideCapacity="4" length="5"/>
    <parkingArea id="pa-563505769#5" lane="-563505769#5_0" roadsideCapacity="4" length="5"/>
    <parkingArea id="pa-563505769#8" lane="-563505769#8_0" roadsideCapacity="5" length="5"/>
    <parkingArea id="pa-563505769#9" lane="-563505769#9_0" roadsideCapacity="10" length="5"/>
    <parkingArea id="pa-564511811" lane="-564511811_0" roadsideCapacity="10" length="5"/>
    <parkingArea id="pa-564511813#0" lane="-564511813#0_0" roadsideCapacity="26" length="5"/>
    <parkingArea id="pa-564511814" lane="-564511814_0" roadsideCapacity="9" length="5"/>
    <parkingArea id="pa-663357753" lane="-663357753_0" roadsideCapacity="18" length="5"/>
    <parkingArea id="pa-664968457#0" lane="-664968457#0_0" roadsideCapacity="1" length="5"/>
    <parkingArea id="pa-69012634#0" lane="-69012634#0_0" roadsideCapacity="19" length="5"/>
    <parkingArea id="pa-69012634#1" lane="-69012634#1_0" roadsideCapacity="16" length="5"/>
    <parkingArea id="pa-69012634#2" lane="-69012634#2_0" roadsideCapacity="16" length="5"/>
    <parkingArea id="pa-69012634#3" lane="-69012634#3_0" roadsideCapacity="25" length="5"/>
    <parkingArea id="pa-69012634#4" lane="-69012634#4_0" roadsideCapacity="23" length="5"/>
    <parkingArea id="pa-691704911" lane="-691704911_0" roadsideCapacity="8" length="5"/>
    <parkingArea id="pa-691836138#1" lane="-691836138#1_0" roadsideCapacity="37" length="5"/>
    <parkingArea id="pa-69416760#0" lane="-69416760#0_0" roadsideCapacity="25" length="5"/>
    <parkingArea id="pa-69416760#1" lane="-69416760#1_0" roadsideCapacity="24" length="5"/>
    <parkingArea id="pa-69416760#2" lane="-69416760#2_0" roadsideCapacity="16" length="5"/>
    <parkingArea id="pa-69416760#3" lane="-69416760#3_0" roadsideCapacity="16" length="5"/>
    <parkingArea id="pa-69416763#0" lane="-69416763#0_0" roadsideCapacity="4" length="5"/>
    <parkingArea id="pa-69416763#1" lane="-69416763#1_0" roadsideCapacity="7" length="5"/>
    <parkingArea id="pa-69416764#1" lane="-69416764#1_0" roadsideCapacity="7" length="5"/>
    <parkingArea id="pa-69416764#2" lane="-69416764#2_0" roadsideCapacity="8" length="5"/>
    <parkingArea id="pa-70056691#0" lane="-70056691#0_0" roadsideCapacity="24" length="5"/>
    <parkingArea id="pa-70056691#1" lane="-70056691#1_0" roadsideCapacity="24" length="5"/>
    <parkingArea id="pa-70056691#2" lane="-70056691#2_0" roadsideCapacity="23" length="5"/>
    <parkingArea id="pa-70056694#0" lane="-70056694#0_0" roadsideCapacity="2" length="5"/>
    <parkingArea id="pa-70056694#1" lane="-70056694#1_0" roadsideCapacity="11" length="5"/>
    <parkingArea id="pa-70056694#2" lane="-70056694#2_0" roadsideCapacity="25" length="5"/>
    <parkingArea id="pa-70056694#3" lane="-70056694#3_0" roadsideCapacity="24" length="5"/>
    <parkingArea id="pa-70056694#4" lane="-70056694#4_0" roadsideCapacity="24" length="5"/>
    <parkingArea id="pa-70078009#0" lane="-70078009#0_0" roadsideCapacity="24" length="5"/>
    <parkingArea id="pa-70078009#1" lane="-70078009#1_0" roadsideCapacity="24" length="5"/>
    <parkingArea id="pa-70078009#2" lane="-70078009#2_0" roadsideCapacity="24" length="5"/>
    <parkingArea id="pa-70078009#3" lane="-70078009#3_0" roadsideCapacity="13" length="5"/>
    <parkingArea id="pa-70200192#1" lane="-70200192#1_0" roadsideCapacity="9" length="5"/>
    <parkingArea id="pa-70200192#2" lane="-70200192#2_0" roadsideCapacity="9" length="5"/>
    <parkingArea id="pa-70200192#3" lane="-70200192#3_0" roadsideCapacity="10" length="5"/>
    <parkingArea id="pa-70200192#4" lane="-70200192#4_0" roadsideCapacity="9" length="5"/>
    <parkingArea id="pa-70200192#5" lane="-70200192#5_0" roadsideCapacity="9" length="5"/>
    <parkingArea id="pa-70200192#6" lane="-70200192#6_0" roadsideCapacity="10" length="5"/>
    <parkingArea id="pa-70200192#8" lane="-70200192#8_0" roadsideCapacity="6" length="5"/>
    <parkingArea id="pa-70200192#9" lane="-70200192#9_0" roadsideCapacity="12" length="5"/>
    <parkingArea id="pa-70200193#0" lane="-70200193#0_0" roadsideCapacity="9" length="5"/>
    <parkingArea id="pa-70200193#1" lane="-70200193#1_0" roadsideCapacity="10" length="5"/>
    <parkingArea id="pa-70200193#2" lane="-70200193#2_0" roadsideCapacity="9" length="5"/>
    <parkingArea id="pa-70200193#3" lane="-70200193#3_0" roadsideCapacity="9" length="5"/>
    <parkingArea id="pa-70200193#4" lane="-70200193#4_0" roadsideCapacity="13" length="5"/>
    <parkingArea id="pa-70200194#0" lane="-70200194#0_0" roadsideCapacity="9" length="5"/>
    <parkingArea id="pa-70200194#1" lane="-70200194#1_0" roadsideCapacity="10" length="5"/>
    <parkingArea id="pa-70200197#0" lane="-70200197#0_0" roadsideCapacity="4" length="5"/>
    <parkingArea id="pa-70200197#1" lane="-70200197#1_0" roadsideCapacity="10" length="5"/>
    <parkingArea id="pa-70200197#2" lane="-70200197#2_0" roadsideCapacity="9" length="5"/>
    <parkingArea id="pa-70200197#3" lane="-70200197#3_0" roadsideCapacity="10" length="5"/>
    <parkingArea id="pa-70200197#4" lane="-70200197#4_0" roadsideCapacity="9" length="5"/>
    <parkingArea id="pa-70200197#5" lane="-70200197#5_0" roadsideCapacity="9" length="5"/>
    <parkingArea id="pa-70200197#6" lane="-70200197#6_0" roadsideCapacity="9" length="5"/>
    <parkingArea id="pa-70200198#0" lane="-70200198#0_0" roadsideCapacity="30" length="5"/>
    <parkingArea id="pa-70200198#2" lane="-70200198#2_0" roadsideCapacity="33" length="5"/>
    <parkingArea id="pa-70200198#3" lane="-70200198#3_0" roadsideCapacity="31" length="5"/>
    <parkingArea id="pa-70200198#4" lane="-70200198#4_0" roadsideCapacity="11" length="5"/>
    <parkingArea id="pa-70200198#5" lane="-70200198#5_0" roadsideCapacity="12" length="5"/>
    <parkingArea id="pa-70200198#6" lane="-70200198#6_0" roadsideCapacity="24" length="5"/>
    <parkingArea id="pa-70200199#0" lane="-70200199#0_0" roadsideCapacity="9" length="5"/>
    <parkingArea id="pa-70200199#1" lane="-70200199#1_0" roadsideCapacity="9" length="5"/>
    <parkingArea id="pa-70200199#2" lane="-70200199#2_0" roadsideCapacity="10" length="5"/>
    <parkingArea id="pa-70200199#3" lane="-70200199#3_0" roadsideCapacity="9" length="5"/>
    <parkingArea id="pa-70200199#4" lane="-70200199#4_0" roadsideCapacity="8" length="5"/>
    <parkingArea id="pa-70200199#5" lane="-70200199#5_0" roadsideCapacity="11" length="5"/>
    <parkingArea id="pa-70200199#6" lane="-70200199#6_0" roadsideCapacity="9" length="5"/>
    <parkingArea id="pa-70200199#7" lane="-70200199#7_0" roadsideCapacity="9" length="5"/>
    <parkingArea id="pa-70200199#8" lane="-70200199#8_0" roadsideCapacity="10" length="5"/>
    <parkingArea id="pa-70200199#9" lane="-70200199#9_0" roadsideCapacity="2" length="5"/>
    <parkingArea id="pa-72508568#0" lane="-72508568#0_0" roadsideCapacity="9" length="5"/>
    <parkingArea id="pa-72508568#1" lane="-72508568#1_0" roadsideCapacity="9" length="5"/>
    <parkingArea id="pa-72508571#0" lane="-72508571#0_0" roadsideCapacity="17" length="5"/>
    <parkingArea id="pa-72508571#1" lane="-72508571#1_0" roadsideCapacity="24" length="5"/>
    <parkingArea id="pa-72508571#2" lane="-72508571#2_0" roadsideCapacity="21" length="5"/>
    <parkingArea id="pa-72508572#0" lane="-72508572#0_0" roadsideCapacity="25" length="5"/>
    <parkingArea id="pa-72508572#1" lane="-72508572#1_0" roadsideCapacity="24" length="5"/>
    <parkingArea id="pa-72508572#2" lane="-72508572#2_0" roadsideCapacity="11" length="5"/>
    <parkingArea id="pa-72508821#0" lane="-72508821#0_0" roadsideCapacity="10" length="5"/>
    <parkingArea id="pa-72508821#1" lane="-72508821#1_0" roadsideCapacity="10" length="5"/>
    <parkingArea id="pa-72508821#2" lane="-72508821#2_0" roadsideCapacity="10" length="5"/>
    <parkingArea id="pa-72508821#3" lane="-72508821#3_0" roadsideCapacity="10" length="5"/>
    <parkingArea id="pa-72508821#4" lane="-72508821#4_0" roadsideCapacity="10" length="5"/>
    <parkingArea id="pa-72508821#5" lane="-72508821#5_0" roadsideCapacity="11" length="5"/>
    <parkingArea id="pa-72631942#0" lane="-72631942#0_0" roadsideCapacity="25" length="5"/>
    <parkingArea id="pa-72631942#1" lane="-72631942#1_0" roadsideCapacity="19" length="5"/>
    <parkingArea id="pa-72641085#0" lane="-72641085#0_0" roadsideCapacity="20" length="5"/>
    <parkingArea id="pa-72641085#1" lane="-72641085#1_0" roadsideCapacity="25" length="5"/>
    <parkingArea id="pa-72641085#2" lane="-72641085#2_0" roadsideCapacity="14" length="5"/>
    <parkingArea id="pa-72641085#3" lane="-72641085#3_0" roadsideCapacity="7" length="5"/>
    <parkingArea id="pa-72641085#4" lane="-72641085#4_0" roadsideCapacity="13" length="5"/>
    <parkingArea id="pa-72644044#0" lane="-72644044#0_0" roadsideCapacity="24" length="5"/>
    <parkingArea id="pa-72644044#1" lane="-72644044#1_0" roadsideCapacity="25" length="5"/>
    <parkingArea id="pa-72644044#3" lane="-72644044#3_0" roadsideCapacity="1" length="5"/>
    <parkingArea id="pa-72644044#4" lane="-72644044#4_0" roadsideCapacity="18" length="5"/>
    <parkingArea id="pa-72644044#5" lane="-72644044#5_0" roadsideCapacity="24" length="5"/>
    <parkingArea id="pa-72644044#6" lane="-72644044#6_0" roadsideCapacity="24" length="5"/>
    <parkingArea id="pa-72644044#7" lane="-72644044#7_0" roadsideCapacity="24" length="5"/>
    <parkingArea id="pa-72644045#0" lane="-72644045#0_0" roadsideCapacity="24" length="5"/>
    <parkingArea id="pa-72644045#1" lane="-72644045#1_0" roadsideCapacity="20" length="5"/>
    <parkingArea id="pa-72644721#0" lane="-72644721#0_0" roadsideCapacity="10" length="5"/>
    <parkingArea id="pa-72644721#1" lane="-72644721#1_0" roadsideCapacity="9" length="5"/>
    <parkingArea id="pa-72644721#2" lane="-72644721#2_0" roadsideCapacity="10" length="5"/>
    <parkingArea id="pa-72644721#3" lane="-72644721#3_0" roadsideCapacity="9" length="5"/>
    <parkingArea id="pa-72644721#4" lane="-72644721#4_0" roadsideCapacity="10" length="5"/>
    <parkingArea id="pa-72644721#5" lane="-72644721#5_0" roadsideCapacity="9" length="5"/>
    <parkingArea id="pa-72644721#6" lane="-72644721#6_0" roadsideCapacity="10" length="5"/>
    <parkingArea id="pa-72644721#7" lane="-72644721#7_0" roadsideCapacity="9" length="5"/>
    <parkingArea id="pa-72644726#0" lane="-72644726#0_0" roadsideCapacity="22" length="5"/>
    <parkingArea id="pa-72644726#1" lane="-72644726#1_0" roadsideCapacity="25" length="5"/>
    <parkingArea id="pa-72644726#2" lane="-72644726#2_0" roadsideCapacity="24" length="5"/>
    <parkingArea id="pa-72644726#3" lane="-72644726#3_0" roadsideCapacity="6" length="5"/>
    <parkingArea id="pa-72644727#0" lane="-72644727#0_0" roadsideCapacity="19" length="5"/>
    <parkingArea id="pa-72644727#1" lane="-72644727#1_0" roadsideCapacity="25" length="5"/>
    <parkingArea id="pa-72644727#2" lane="-72644727#2_0" roadsideCapacity="25" length="5"/>
    <parkingArea id="pa-73961832" lane="-73961832_0" roadsideCapacity="30" length="5"/>
    <parkingArea id="pa-75259399" lane="-75259399_0" roadsideCapacity="25" length="5"/>
    <parkingArea id="pa-75259400#0" lane="-75259400#0_0" roadsideCapacity="18" length="5"/>
    <parkingArea id="pa-75259400#1" lane="-75259400#1_0" roadsideCapacity="9" length="5"/>
    <parkingArea id="pa-75259400#2" lane="-75259400#2_0" roadsideCapacity="9" length="5"/>
    <parkingArea id="pa-75259400#3" lane="-75259400#3_0" roadsideCapacity="9" length="5"/>
    <parkingArea id="pa-75259400#4" lane="-75259400#4_0" roadsideCapacity="9" length="5"/>
    <parkingArea id="pa-75259400#5" lane="-75259400#5_0" roadsideCapacity="9" length="5"/>
    <parkingArea id="pa-75259400#6" lane="-75259400#6_0" roadsideCapacity="9" length="5"/>
    <parkingArea id="pa-75259400#7" lane="-75259400#7_0" roadsideCapacity="10" length="5"/>
    <parkingArea id="pa-75259402#0" lane="-75259402#0_0" roadsideCapacity="18" length="5"/>
    <parkingArea id="pa-75259402#1" lane="-75259402#1_0" roadsideCapacity="12" length="5"/>
    <parkingArea id="pa-75259402#2" lane="-75259402#2_0" roadsideCapacity="7" length="5"/>
    <parkingArea id="pa-75259403" lane="-75259403_0" roadsideCapacity="33" length="5"/>
    <parkingArea id="pa-75259404#0" lane="-75259404#0_0" roadsideCapacity="17" length="5"/>
    <parkingArea id="pa-75259404#1" lane="-75259404#1_0" roadsideCapacity="18" length="5"/>
    <parkingArea id="pa-75259405#0" lane="-75259405#0_0" roadsideCapacity="12" length="5"/>
    <parkingArea id="pa-75259405#1" lane="-75259405#1_0" roadsideCapacity="9" length="5"/>
    <parkingArea id="pa-75259405#2" lane="-75259405#2_0" roadsideCapacity="10" length="5"/>
    <parkingArea id="pa-75259405#3" lane="-75259405#3_0" roadsideCapacity="9" length="5"/>
    <parkingArea id="pa-75259405#4" lane="-75259405#4_0" roadsideCapacity="9" length="5"/>
    <parkingArea id="pa-75259405#5" lane="-75259405#5_0" roadsideCapacity="9" length="5"/>