<routes xmlns:xsi="http://www.w3.org/2001/XMLSchema-instance" xsi:noNamespaceSchemaLocation="http://sumo.dlr.de/xsd/routes_file.xsd">

<!-- BEGIN - LLM Generated trips -->

<!-- Vehicles -->
<vTypeDistribution id="agg">
	<vType id="v_agg0" minGap="0.27" accel="2.26" decel="1.96" startupDelay="0.3" sigma="0.76" tau="1.4" maxSpeed="109.03" speedFactor="1.94" lcStrategic="9.71" lcCooperative="0.12" lcSpeedGain="8.19" lcKeepRight="2.14" lcOvertakeRight="0.82" lcSpeedGainLookahead="4.34" lcOvertakeDeltaSpeedFactor="0.73" lcPushy="0.64" lcAssertive="3.36" lcImpatience="0.67" lcTimeToImpatience="5.55" lcLaneDiscipline="2.23" lcSigma="0.83" lcAccelLat="2.01" probability="0.19831398845198756">
		<param key="device.rerouting.probability" value="1.0"/>
		<param key="device.rerouting.adaptation-steps" value="18"/>
		<param key="device.rerouting.adaptation-interval" value="10"/>
	</vType>
	<vType id="v_agg1" minGap="0.3" accel="2.86" decel="2.86" startupDelay="0.37" sigma="0.9" tau="1.25" maxSpeed="110.5" speedFactor="1.85" lcStrategic="6.71" lcCooperative="0.09" lcSpeedGain="10.16" lcKeepRight="4.55" lcOvertakeRight="0.92" lcSpeedGainLookahead="3.55" lcOvertakeDeltaSpeedFactor="0.6" lcPushy="0.94" lcAssertive="4.57" lcImpatience="0.69" lcTimeToImpatience="6.24" lcLaneDiscipline="2.12" lcSigma="0.45" lcAccelLat="3.02" probability="0.6285547575311441">
		<param key="device.rerouting.probability" value="1.0"/>
		<param key="device.rerouting.adaptation-steps" value="18"/>
		<param key="device.rerouting.adaptation-interval" value="10"/>
	</vType>
	<vType id="v_agg2" minGap="0.15" accel="2.72" decel="3.45" startupDelay="0.21" sigma="0.63" tau="1.21" maxSpeed="116.54" speedFactor="1.86" lcStrategic="7.26" lcCooperative="0.15" lcSpeedGain="9.0" lcKeepRight="6.64" lcOvertakeRight="0.83" lcSpeedGainLookahead="3.27" lcOvertakeDeltaSpeedFactor="0.67" lcPushy="0.8" lcAssertive="2.89" lcImpatience="0.81" lcTimeToImpatience="7.68" lcLaneDiscipline="1.69" lcSigma="0.61" lcAccelLat="1.88" probability="0.10404924104492039">
		<param key="device.rerouting.probability" value="1.0"/>
		<param key="device.rerouting.adaptation-steps" value="18"/>
		<param key="device.rerouting.adaptation-interval" value="10"/>
	</vType>
	<vType id="v_agg3" minGap="0.29" accel="3.46" decel="3.09" startupDelay="0.23" sigma="0.92" tau="1.27" maxSpeed="114.35" speedFactor="1.85" lcStrategic="5.68" lcCooperative="0.07" lcSpeedGain="7.68" lcKeepRight="0.61" lcOvertakeRight="0.84" lcSpeedGainLookahead="3.81" lcOvertakeDeltaSpeedFactor="0.68" lcPushy="1.0" lcAssertive="2.43" lcImpatience="0.71" lcTimeToImpatience="5.51" lcLaneDiscipline="1.4" lcSigma="0.85" lcAccelLat="1.88" probability="0.05656208286605658">
		<param key="device.rerouting.probability" value="1.0"/>
		<param key="device.rerouting.adaptation-steps" value="18"/>
		<param key="device.rerouting.adaptation-interval" value="10"/>
	</vType>
	<vType id="v_agg4" minGap="0.01" accel="1.83" decel="2.22" startupDelay="0.23" sigma="0.69" tau="1.36" maxSpeed="113.46" speedFactor="1.75" lcStrategic="6.11" lcCooperative="0.04" lcSpeedGain="12.34" lcKeepRight="3.81" lcOvertakeRight="0.49" lcSpeedGainLookahead="2.32" lcOvertakeDeltaSpeedFactor="0.69" lcPushy="0.47" lcAssertive="3.72" lcImpatience="0.69" lcTimeToImpatience="7.65" lcLaneDiscipline="2.8" lcSigma="0.87" lcAccelLat="1.57" probability="0.012519930105891494">
		<param key="device.rerouting.probability" value="1.0"/>
		<param key="device.rerouting.adaptation-steps" value="18"/>
		<param key="device.rerouting.adaptation-interval" value="10"/>
	</vType>
</vTypeDistribution>
<vTypeDistribution id="norm">
	<vType id="v_norm0" minGap="1.63" accel="1.74" decel="1.42" startupDelay="0.94" sigma="0.21" tau="1.72" maxSpeed="84.74" speedFactor="1.33" lcStrategic="2.22" lcCooperative="0.56" lcSpeedGain="1.93" lcKeepRight="0.71" lcOvertakeRight="0.25" lcSpeedGainLookahead="1.77" lcOvertakeDeltaSpeedFactor="-0.24" lcPushy="0.02" lcAssertive="1.0" lcImpatience="0.04" lcTimeToImpatience="21.3" lcLaneDiscipline="0.86" lcSigma="0.05" lcAccelLat="0.94" probability="0.4271588708554013">
		<param key="device.rerouting.probability" value="1.0"/>
		<param key="device.rerouting.adaptation-steps" value="18"/>
		<param key="device.rerouting.adaptation-interval" value="10"/>
	</vType>
	<vType id="v_norm1" minGap="1.99" accel="1.52" decel="1.68" startupDelay="0.66" sigma="0.2" tau="1.74" maxSpeed="85.8" speedFactor="1.38" lcStrategic="2.36" lcCooperative="0.63" lcSpeedGain="1.93" lcKeepRight="0.7" lcOvertakeRight="0.11" lcSpeedGainLookahead="1.57" lcOvertakeDeltaSpeedFactor="0.34" lcPushy="0.08" lcAssertive="1.18" lcImpatience="0.12" lcTimeToImpatience="10.51" lcLaneDiscipline="0.47" lcSigma="0.06" lcAccelLat="0.75" probability="0.27164682336417073">
		<param key="device.rerouting.probability" value="1.0"/>
		<param key="device.rerouting.adaptation-steps" value="18"/>
		<param key="device.rerouting.adaptation-interval" value="10"/>
	</vType>
	<vType id="v_norm2" minGap="1.53" accel="1.36" decel="1.73" startupDelay="0.83" sigma="0.1" tau="1.88" maxSpeed="84.96" speedFactor="1.12" lcStrategic="2.45" lcCooperative="0.77" lcSpeedGain="2.5" lcKeepRight="0.78" lcOvertakeRight="0.06" lcSpeedGainLookahead="1.14" lcOvertakeDeltaSpeedFactor="0.52" lcPushy="0.2" lcAssertive="1.11" lcImpatience="0.06" lcTimeToImpatience="12.01" lcLaneDiscipline="0.32" lcSigma="0.17" lcAccelLat="0.8" probability="0.2719238690596126">
		<param key="device.rerouting.probability" value="1.0"/>
		<param key="device.rerouting.adaptation-steps" value="18"/>
		<param key="device.rerouting.adaptation-interval" value="10"/>
	</vType>
	<vType id="v_norm3" minGap="1.33" accel="1.35" decel="1.54" startupDelay="0.73" sigma="0.0" tau="1.63" maxSpeed="89.49" speedFactor="1.27" lcStrategic="1.22" lcCooperative="0.75" lcSpeedGain="1.52" lcKeepRight="0.53" lcOvertakeRight="0.06" lcSpeedGainLookahead="1.68" lcOvertakeDeltaSpeedFactor="0.03" lcPushy="0.1" lcAssertive="1.31" lcImpatience="0.05" lcTimeToImpatience="17.84" lcLaneDiscipline="0.18" lcSigma="0.14" lcAccelLat="0.7" probability="0.02017918588931703">
		<param key="device.rerouting.probability" value="1.0"/>
		<param key="device.rerouting.adaptation-steps" value="18"/>
		<param key="device.rerouting.adaptation-interval" value="10"/>
	</vType>
	<vType id="v_norm4" minGap="1.02" accel="1.67" decel="1.47" startupDelay="0.73" sigma="0.13" tau="1.75" maxSpeed="91.95" speedFactor="1.34" lcStrategic="1.82" lcCooperative="0.71" lcSpeedGain="1.69" lcKeepRight="0.63" lcOvertakeRight="0.08" lcSpeedGainLookahead="1.35" lcOvertakeDeltaSpeedFactor="-0.03" lcPushy="0.0" lcAssertive="1.28" lcImpatience="0.04" lcTimeToImpatience="9.59" lcLaneDiscipline="0.11" lcSigma="0.09" lcAccelLat="0.63" probability="0.009091250831498294">
		<param key="device.rerouting.probability" value="1.0"/>
		<param key="device.rerouting.adaptation-steps" value="18"/>
		<param key="device.rerouting.adaptation-interval" value="10"/>
	</vType>
</vTypeDistribution>

<!-- Trips -->
<trip id="veh1" type="agg" depart="0" from="72644726#1" to="72644726#1">
	<stop parkingArea="pa-183876531#3" duration="100"/>
	<stop parkingArea="pa72508815#16" duration="400"/>
	<stop parkingArea="pa70056689#13" duration="200"/>
	<stop parkingArea="pa-183876531#3" duration="300"/>
	<stop parkingArea="pa72508815#16" duration="100"/>
	<stop parkingArea="pa72644726#1" duration="100"/>
	<stop parkingArea="pa75413331#1" duration="100"/>
</trip>
<trip id="veh2" type="agg" depart="0" from="72644726#1" to="72644726#1">
	<stop parkingArea="pa-183876531#3" duration="100"/>
	<stop parkingArea="pa-147412853#1" duration="400"/>
	<stop parkingArea="pa77783516#2" duration="200"/>
	<stop parkingArea="pa77783516#2" duration="300"/>
</trip>
<trip id="veh3" type="agg" depart="0" from="72644726#1" to="72644726#1">
	<stop parkingArea="pa447326049#4" duration="100"/>
	<stop parkingArea="pa72644725#5" duration="100"/>
	<stop parkingArea="pa447326049#4" duration="100"/>
	<stop parkingArea="pa72508815#16" duration="200"/>
	<stop parkingArea="pa447326049#4" duration="100"/>
	<stop parkingArea="pa72644725#5" duration="500"/>
	<stop parkingArea="pa70056689#13" duration="100"/>
	<stop parkingArea="pa-85701998" duration="100"/>
</trip>
<trip id="veh4" type="norm" depart="0" from="72644726#1" to="72644726#1">
	<stop parkingArea="pa447326049#4" duration="100"/>
	<stop parkingArea="pa72508815#16" duration="400"/>
	<stop parkingArea="pa70056689#13" duration="100"/>
	<stop parkingArea="pa447326049#4" duration="100"/>
	<stop parkingArea="pa75416306#1" duration="400"/>
	<stop parkingArea="pa90743683#0" duration="100"/>
</trip>
<trip id="veh5" type="norm" depart="0" from="72644726#1" to="72644726#1">
	<stop parkingArea="pa447326049#4" duration="100"/>
	<stop parkingArea="pa75416306#1" duration="200"/>
	<stop parkingArea="pa447326049#4" duration="100"/>
	<stop parkingArea="pa72508818" duration="100"/>
	<stop parkingArea="pa237036477#16" duration="100"/>
	<stop parkingArea="pa447326049#4" duration="100"/>
	<stop parkingArea="pa72508818" duration="400"/>
	<stop parkingArea="pa-147412866#1" duration="100"/>
</trip>


 <!-- END - LLM Generated trips -->

<!-- BEGIN - Random Trips -->


</routes>