<routes xmlns:xsi="http://www.w3.org/2001/XMLSchema-instance" xsi:noNamespaceSchemaLocation="http://sumo.dlr.de/xsd/routes_file.xsd">

<!-- Vehicles -->
<vType id="veh_passenger" vClass="passenger" accel="2" decel="5" sigma="0.5" maxSpeed="50">
	<param key="device.rerouting.probability" value="1.0"/>
	<param key="device.rerouting.adaptation-steps" value="18"/>
	<param key="device.rerouting.adaptation-interval" value="10"/>
</vType>

<!-- Trips -->
<trip id="veh1" type="veh_passenger" depart="0" from="70200198#0" to="70200198#0">
	<stop parkingArea="paIC" duration="100"/>
	<stop parkingArea="pa72508815#14" duration="400"/>
	<stop parkingArea="pa72508815#12" duration="100"/>
	<stop parkingArea="pa75701374#4" duration="500"/>
</trip>
<trip id="veh2" type="veh_passenger" depart="0" from="72644044#5" to="72644044#5">
	<stop parkingArea="pa72508815#4" duration="100"/>
	<stop parkingArea="pa77674920#0" duration="400"/>
	<stop parkingArea="pa447326048#1" duration="100"/>
	<stop parkingArea="pa75701374#4" duration="500"/>
</trip>
<trip id="veh3" type="veh_passenger" depart="0" from="72641085#4" to="72641085#4">
	<stop parkingArea="pa72508815#1" duration="100"/>
	<stop parkingArea="pa72508815#14" duration="400"/>
	<stop parkingArea="pa693637406#12" duration="100"/>
	<stop parkingArea="pa75701374#4" duration="500"/>
</trip>
<trip id="veh4" type="veh_passenger" depart="0" from="75259399" to="75259399">
	<stop parkingArea="paIC" duration="100"/>
	<stop parkingArea="pa77674920#0" duration="400"/>
	<stop parkingArea="pa72508815#4" duration="100"/>
	<stop parkingArea="pa75701374#4" duration="500"/>
</trip>
<trip id="veh5" type="veh_passenger" depart="0" from="72508815#14" to="72508815#14">
	<stop parkingArea="pa75679333#5" duration="100"/>
	<stop parkingArea="pa72508815#14" duration="400"/>
	<stop parkingArea="pa72508815#12" duration="100"/>
	<stop parkingArea="pa75701374#4" duration="500"/>
</trip>
<trip id="veh6" type="veh_passenger" depart="0" from="75413332#0" to="75413332#0">
	<stop parkingArea="pa72508815#4" duration="100"/>
	<stop parkingArea="pa77674920#0" duration="400"/>
	<stop parkingArea="pa447326048#1" duration="100"/>
	<stop parkingArea="pa75701374#4" duration="500"/>
</trip>
<trip id="veh7" type="veh_passenger" depart="0" from="72644726#2" to="72644726#2">
	<stop parkingArea="pa72508815#1" duration="100"/>
	<stop parkingArea="pa72508815#14" duration="400"/>
	<stop parkingArea="pa693637406#12" duration="100"/>
	<stop parkingArea="pa75701374#4" duration="500"/>
</trip>
<trip id="veh8" type="veh_passenger" depart="0" from="75413339#2" to="75413339#2">
	<stop parkingArea="paIC" duration="100"/>
	<stop parkingArea="pa77674920#0" duration="400"/>
	<stop parkingArea="pa72508815#4" duration="100"/>
	<stop parkingArea="pa75701374#4" duration="500"/>
</trip>
<trip id="veh9" type="veh_passenger" depart="0" from="89478571#5" to="89478571#5">
	<stop parkingArea="pa75679333#5" duration="100"/>
	<stop parkingArea="pa72508815#14" duration="400"/>
	<stop parkingArea="pa72508815#12" duration="100"/>
	<stop parkingArea="pa75701374#4" duration="500"/>
</trip>
<trip id="veh10" type="veh_passenger" depart="0" from="563505737#0" to="563505737#0">
	<stop parkingArea="pa72508815#4" duration="100"/>
	<stop parkingArea="pa77674920#0" duration="400"/>
	<stop parkingArea="pa447326048#1" duration="100"/>
	<stop parkingArea="pa75701374#4" duration="500"/>
</trip>
<trip id="veh11" type="veh_passenger" depart="0" from="77709899#0" to="77709899#0">
	<stop parkingArea="pa72508815#1" duration="100"/>
	<stop parkingArea="pa72508815#14" duration="400"/>
	<stop parkingArea="pa693637406#12" duration="100"/>
	<stop parkingArea="pa75701374#4" duration="500"/>
</trip>
<trip id="veh12" type="veh_passenger" depart="0" from="70078009#2" to="70078009#2">
	<stop parkingArea="paIC" duration="100"/>
	<stop parkingArea="pa77674920#0" duration="400"/>
	<stop parkingArea="pa72508815#4" duration="100"/>
	<stop parkingArea="pa75701374#4" duration="500"/>
</trip>
<trip id="veh13" type="veh_passenger" depart="0" from="75679359#1" to="75679359#1">
	<stop parkingArea="pa75679333#5" duration="100"/>
	<stop parkingArea="pa72508815#14" duration="400"/>
	<stop parkingArea="pa72508815#12" duration="100"/>
	<stop parkingArea="pa75701374#4" duration="500"/>
</trip>
<trip id="veh14" type="veh_passenger" depart="0" from="691836138#1" to="691836138#1">
	<stop parkingArea="pa72508815#4" duration="100"/>
	<stop parkingArea="pa77674920#0" duration="400"/>
	<stop parkingArea="pa447326048#1" duration="100"/>
	<stop parkingArea="pa75701374#4" duration="500"/>
</trip>
<trip id="veh15" type="veh_passenger" depart="0" from="-75259404#1" to="-75259404#1">
	<stop parkingArea="pa72508815#1" duration="100"/>
	<stop parkingArea="pa72508815#14" duration="400"/>
	<stop parkingArea="pa693637406#12" duration="100"/>
	<stop parkingArea="pa75701374#4" duration="500"/>
</trip>
<trip id="veh16" type="veh_passenger" depart="0" from="-75259403" to="-75259403">
	<stop parkingArea="paIC" duration="100"/>
	<stop parkingArea="pa77674920#0" duration="400"/>
	<stop parkingArea="pa72508815#4" duration="100"/>
	<stop parkingArea="pa75701374#4" duration="500"/>
</trip>
<trip id="veh17" type="veh_passenger" depart="0" from="75679359#2" to="75679359#2">
	<stop parkingArea="pa75679333#5" duration="100"/>
	<stop parkingArea="pa72508815#14" duration="400"/>
	<stop parkingArea="pa72508815#12" duration="100"/>
	<stop parkingArea="pa75701374#4" duration="500"/>
</trip>
<trip id="veh18" type="veh_passenger" depart="0" from="70200198#3" to="70200198#3">
	<stop parkingArea="pa72508815#4" duration="100"/>
	<stop parkingArea="pa77674920#0" duration="400"/>
	<stop parkingArea="pa447326048#1" duration="100"/>
	<stop parkingArea="pa75701374#4" duration="500"/>
</trip>
<trip id="veh19" type="veh_passenger" depart="0" from="-75413343#1" to="-75413343#1">
	<stop parkingArea="pa72508815#1" duration="100"/>
	<stop parkingArea="pa72508815#14" duration="400"/>
	<stop parkingArea="pa693637406#12" duration="100"/>
	<stop parkingArea="pa75701374#4" duration="500"/>
</trip>
<trip id="veh20" type="veh_passenger" depart="0" from="72508571#1" to="72508571#1">
	<stop parkingArea="paIC" duration="100"/>
	<stop parkingArea="pa77674920#0" duration="400"/>
	<stop parkingArea="pa72508815#4" duration="100"/>
	<stop parkingArea="pa75701374#4" duration="500"/>
</trip>
<trip id="veh21" type="veh_passenger" depart="0" from="-72644044#0" to="-72644044#0">
	<stop parkingArea="pa75679333#5" duration="100"/>
	<stop parkingArea="pa72508815#14" duration="400"/>
	<stop parkingArea="pa72508815#12" duration="100"/>
	<stop parkingArea="pa75701374#4" duration="500"/>
</trip>
<trip id="veh22" type="veh_passenger" depart="0" from="77670431#4" to="77670431#4">
	<stop parkingArea="pa72508815#4" duration="100"/>
	<stop parkingArea="pa77674920#0" duration="400"/>
	<stop parkingArea="pa447326048#1" duration="100"/>
	<stop parkingArea="pa75701374#4" duration="500"/>
</trip>
<trip id="veh23" type="veh_passenger" depart="0" from="147379107#0" to="147379107#0">
	<stop parkingArea="pa72508815#1" duration="100"/>
	<stop parkingArea="pa72508815#14" duration="400"/>
	<stop parkingArea="pa693637406#12" duration="100"/>
	<stop parkingArea="pa75701374#4" duration="500"/>
</trip>
<trip id="veh24" type="veh_passenger" depart="0" from="72644726#2" to="72644726#2">
	<stop parkingArea="paIC" duration="100"/>
	<stop parkingArea="pa77674920#0" duration="400"/>
	<stop parkingArea="pa72508815#4" duration="100"/>
	<stop parkingArea="pa75701374#4" duration="500"/>
</trip>
<trip id="veh25" type="veh_passenger" depart="0" from="75413331#1" to="75413331#1">
	<stop parkingArea="pa75679333#5" duration="100"/>
	<stop parkingArea="pa72508815#14" duration="400"/>
	<stop parkingArea="pa72508815#12" duration="100"/>
	<stop parkingArea="pa75701374#4" duration="500"/>
</trip>
<trip id="veh26" type="veh_passenger" depart="0" from="-75679328#1" to="-75679328#1">
	<stop parkingArea="pa72508815#4" duration="100"/>
	<stop parkingArea="pa77674920#0" duration="400"/>
	<stop parkingArea="pa447326048#1" duration="100"/>
	<stop parkingArea="pa75701374#4" duration="500"/>
</trip>
<trip id="veh27" type="veh_passenger" depart="0" from="-147379106#0" to="-147379106#0">
	<stop parkingArea="pa72508815#1" duration="100"/>
	<stop parkingArea="pa72508815#14" duration="400"/>
	<stop parkingArea="pa693637406#12" duration="100"/>
	<stop parkingArea="pa75701374#4" duration="500"/>
</trip>
<trip id="veh28" type="veh_passenger" depart="0" from="72644725#1" to="72644725#1">
	<stop parkingArea="paIC" duration="100"/>
	<stop parkingArea="pa77674920#0" duration="400"/>
	<stop parkingArea="pa72508815#4" duration="100"/>
	<stop parkingArea="pa75701374#4" duration="500"/>
</trip>
<trip id="veh29" type="veh_passenger" depart="0" from="-75259405#0" to="-75259405#0">
	<stop parkingArea="pa75679333#5" duration="100"/>
	<stop parkingArea="pa72508815#14" duration="400"/>
	<stop parkingArea="pa72508815#12" duration="100"/>
	<stop parkingArea="pa75701374#4" duration="500"/>
</trip>
<trip id="veh30" type="veh_passenger" depart="0" from="70200195#4" to="70200195#4">
	<stop parkingArea="pa72508815#4" duration="100"/>
	<stop parkingArea="pa77674920#0" duration="400"/>
	<stop parkingArea="pa447326048#1" duration="100"/>
	<stop parkingArea="pa75701374#4" duration="500"/>
</trip>
<trip id="veh31" type="veh_passenger" depart="0" from="70056689#9" to="70056689#9">
	<stop parkingArea="pa72508815#1" duration="100"/>
	<stop parkingArea="pa72508815#14" duration="400"/>
	<stop parkingArea="pa693637406#12" duration="100"/>
	<stop parkingArea="pa75701374#4" duration="500"/>
</trip>
</routes>