<?xml version="1.0" encoding="UTF-8"?>

<!-- generated on 2024-11-22 15:56:30.510613 by randomTrips.py UNKNOWN
<configuration>
    <net-file value="osm.net.xml"/>
    <additional-files value="osm_stops.add.xml"/>
    <output-trip-file value="randtrips.trips.xml"/>
    <route-file value="randtrips.rou.xml"/>
    <vehicle-class value="passenger"/>
    <validate value="True"/>
    <end value="500.0"/>
</configuration>
-->

<!-- generated on 2024-11-22 15:56:30 by Eclipse SUMO duarouter Version 1.21.0
<duarouterConfiguration xmlns:xsi="http://www.w3.org/2001/XMLSchema-instance" xsi:noNamespaceSchemaLocation="http://sumo.dlr.de/xsd/duarouterConfiguration.xsd">

    <input>
        <net-file value="osm.net.xml"/>
        <additional-files value="osm_stops.add.xml"/>
        <route-files value="randtrips.trips.xml"/>
    </input>

    <output>
        <output-file value="randtrips.trips.xml.tmp"/>
        <alternatives-output value="NUL"/>
        <write-trips value="true"/>
    </output>

    <time>
        <begin value="0"/>
        <end value="500.0"/>
    </time>

    <report>
        <no-warnings value="true"/>
        <ignore-errors value="true"/>
        <no-step-log value="true"/>
    </report>

</duarouterConfiguration>
-->

<routes xmlns:xsi="http://www.w3.org/2001/XMLSchema-instance" xsi:noNamespaceSchemaLocation="http://sumo.dlr.de/xsd/routes_file.xsd">
    <vType id="passenger" vClass="passenger"/>
    <trip id="0" type="passenger" depart="0.00" from="70200198#5" to="-147419826#0"/>
    <trip id="1" type="passenger" depart="1.00" from="-88141324#0" to="-77948759#0"/>
    <trip id="2" type="passenger" depart="2.00" from="75416306#7" to="72644044#1"/>
    <trip id="3" type="passenger" depart="3.00" from="85631065#2" to="-563505769#10"/>
    <trip id="4" type="passenger" depart="4.00" from="386834059#5" to="-147419852#3"/>
    <trip id="5" type="passenger" depart="5.00" from="-77781347#2" to="563505743#3"/>
    <trip id="6" type="passenger" depart="6.00" from="-147419852#1" to="-75701376#4"/>
    <trip id="7" type="passenger" depart="7.00" from="72508572#1" to="689691698#12"/>
    <trip id="8" type="passenger" depart="8.00" from="-77783516#0" to="70056689#18"/>
    <trip id="9" type="passenger" depart="9.00" from="77674942#2" to="-1130964472"/>
    <trip id="10" type="passenger" depart="10.00" from="77674936#2" to="75259400#5"/>
    <trip id="11" type="passenger" depart="11.00" from="147379112#1" to="-72644044#7"/>
    <trip id="12" type="passenger" depart="12.00" from="890559137#1" to="147379114#1"/>
    <trip id="13" type="passenger" depart="13.00" from="-563505769#4" to="-663357753"/>
    <trip id="14" type="passenger" depart="14.00" from="77781346#0" to="70080980#3"/>
    <trip id="15" type="passenger" depart="15.00" from="77674938#3" to="75416306#10"/>
    <trip id="16" type="passenger" depart="16.00" from="564511809#1" to="890738229#4"/>
    <trip id="17" type="passenger" depart="17.00" from="220996670#0" to="689691699#2"/>
    <trip id="18" type="passenger" depart="18.00" from="77680543#4" to="70200195#12"/>
    <trip id="19" type="passenger" depart="19.00" from="77873286#6" to="69416762#2"/>
    <trip id="20" type="passenger" depart="20.00" from="75259402#2" to="-329703621#2"/>
    <trip id="21" type="passenger" depart="21.00" from="-78684176#0" to="-89431163#0"/>
    <trip id="22" type="passenger" depart="22.00" from="-563505758" to="-85631065#0"/>
    <trip id="23" type="passenger" depart="23.00" from="-69012634#3" to="-889993133#1"/>
    <trip id="24" type="passenger" depart="24.00" from="70200197#4" to="183876531#2"/>
    <trip id="25" type="passenger" depart="25.00" from="183876531#0" to="-77680543#1"/>
    <trip id="26" type="passenger" depart="26.00" from="-85701991" to="88141324#1"/>
    <trip id="27" type="passenger" depart="27.00" from="72508571#1" to="70200192#2"/>
    <trip id="28" type="passenger" depart="28.00" from="-75259400#5" to="75416306#1"/>
    <trip id="29" type="passenger" depart="29.00" from="-72644726#0" to="237036477#15"/>
    <trip id="30" type="passenger" depart="30.00" from="90743683#3" to="70200199#4"/>
    <trip id="31" type="passenger" depart="31.00" from="69012634#2" to="72644721#4"/>
    <trip id="32" type="passenger" depart="32.00" from="77781343#2" to="75701376#3"/>
    <trip id="33" type="passenger" depart="33.00" from="-78684176#2" to="-179051712#3"/>
    <trip id="34" type="passenger" depart="34.00" from="1046248579#1" to="-85701996#0"/>
    <trip id="35" type="passenger" depart="35.00" from="-77680543#1" to="889993132#0"/>
    <trip id="36" type="passenger" depart="36.00" from="77881557#6" to="1054468188#0"/>
    <trip id="37" type="passenger" depart="37.00" from="72508573#3" to="278132384#1"/>
    <trip id="38" type="passenger" depart="38.00" from="85701978#2" to="535558320#2"/>
    <trip id="39" type="passenger" depart="39.00" from="-85701988#4" to="-85631072#9"/>
    <trip id="40" type="passenger" depart="40.00" from="69321368#1" to="-85701988#4"/>
    <trip id="41" type="passenger" depart="41.00" from="69830501#2" to="85631072#0"/>
    <trip id="42" type="passenger" depart="42.00" from="269853395#0" to="-77783501#1"/>
    <trip id="43" type="passenger" depart="43.00" from="970808982" to="563505751#2"/>
    <trip id="44" type="passenger" depart="44.00" from="-563505769#2" to="-329703621#4"/>
    <trip id="45" type="passenger" depart="45.00" from="-70056691#1" to="70200195#6"/>
    <trip id="46" type="passenger" depart="46.00" from="77652221" to="386834060#8"/>
    <trip id="47" type="passenger" depart="47.00" from="-533682528#6" to="237036477#19"/>
    <trip id="48" type="passenger" depart="48.00" from="970642925" to="563505769#4"/>
    <trip id="50" type="passenger" depart="50.00" from="-147379108#0" to="75413339#2"/>
    <trip id="51" type="passenger" depart="51.00" from="72644044#4" to="627798939#0"/>
    <trip id="52" type="passenger" depart="52.00" from="-85701991" to="70200199#6"/>
    <trip id="53" type="passenger" depart="53.00" from="-70056694#1" to="447326050#1"/>
    <trip id="54" type="passenger" depart="54.00" from="533682528#2" to="890076349#2"/>
    <trip id="55" type="passenger" depart="55.00" from="77881557#5" to="-85701989"/>
    <trip id="56" type="passenger" depart="56.00" from="563505739#0" to="-75259405#7"/>
    <trip id="58" type="passenger" depart="58.00" from="-89530503#0" to="70200199#3"/>
    <trip id="59" type="passenger" depart="59.00" from="70080980#6" to="-72644044#2"/>
    <trip id="60" type="passenger" depart="60.00" from="75679335#4" to="664968457#0"/>
    <trip id="61" type="passenger" depart="61.00" from="75701376#4" to="563505769#6"/>
    <trip id="62" type="passenger" depart="62.00" from="-1046248579#0" to="1054468195#1"/>
    <trip id="63" type="passenger" depart="63.00" from="-147412859#2" to="85701995#1"/>
    <trip id="64" type="passenger" depart="64.00" from="77948714#1" to="77709899#0"/>
    <trip id="65" type="passenger" depart="65.00" from="-970630999#0" to="-447326050#1"/>
    <trip id="66" type="passenger" depart="66.00" from="77948714#0" to="890032153"/>
    <trip id="67" type="passenger" depart="67.00" from="-563505766#1" to="539691353#7"/>
    <trip id="68" type="passenger" depart="68.00" from="-539409504" to="75679335#5"/>
    <trip id="69" type="passenger" depart="69.00" from="75679337#5" to="-70200197#4"/>
    <trip id="70" type="passenger" depart="70.00" from="537232374#1" to="689691698#8"/>
    <trip id="72" type="passenger" depart="72.00" from="386834060#0" to="-77781344"/>
    <trip id="73" type="passenger" depart="73.00" from="564511814" to="75416306#11"/>
    <trip id="74" type="passenger" depart="74.00" from="-75701376#5" to="1046248579#2"/>
    <trip id="75" type="passenger" depart="75.00" from="970631000#3" to="72508573#12"/>
    <trip id="76" type="passenger" depart="76.00" from="447326049#7" to="563505765#3"/>
    <trip id="77" type="passenger" depart="77.00" from="-70200192#5" to="-77948763"/>
    <trip id="78" type="passenger" depart="78.00" from="147379108#2" to="70056689#16"/>
    <trip id="79" type="passenger" depart="79.00" from="-78684178#0" to="-77783516#0"/>
    <trip id="80" type="passenger" depart="80.00" from="-539691352#2" to="70200197#2"/>
    <trip id="81" type="passenger" depart="81.00" from="-78684176#2" to="85631074#0"/>
    <trip id="82" type="passenger" depart="82.00" from="77873286#3" to="-563505734#0"/>
    <trip id="83" type="passenger" depart="83.00" from="-85631065#6" to="72508821#0"/>
    <trip id="84" type="passenger" depart="84.00" from="-77781345#1" to="-70200198#5"/>
    <trip id="85" type="passenger" depart="85.00" from="85703442#1" to="693637406#16"/>
    <trip id="87" type="passenger" depart="87.00" from="77674938#4" to="-75413336#2"/>
    <trip id="88" type="passenger" depart="88.00" from="-663357753" to="447326049#4"/>
    <trip id="89" type="passenger" depart="89.00" from="386834060#1" to="535725901#3"/>
    <trip id="90" type="passenger" depart="90.00" from="75413342" to="72641085#0"/>
    <trip id="91" type="passenger" depart="91.00" from="89530503#6" to="-664980454"/>
    <trip id="92" type="passenger" depart="92.00" from="278132384#3" to="147379116#6"/>
    <trip id="93" type="passenger" depart="93.00" from="77873286#6" to="-856607131#0"/>
    <trip id="94" type="passenger" depart="94.00" from="-75413333#0" to="533682528#2"/>
    <trip id="95" type="passenger" depart="95.00" from="386834059#5" to="-890076349#0"/>
    <trip id="96" type="passenger" depart="96.00" from="-85631074#0" to="85701988#3"/>
    <trip id="97" type="passenger" depart="97.00" from="447326319#3" to="77873286#7"/>
    <trip id="98" type="passenger" depart="98.00" from="689691698#14" to="-365875108"/>
    <trip id="99" type="passenger" depart="99.00" from="IC" to="77712876#2"/>
    <trip id="100" type="passenger" depart="100.00" from="890681699#1" to="85701991"/>
    <trip id="101" type="passenger" depart="101.00" from="77781347#0" to="-73961832"/>
    <trip id="102" type="passenger" depart="102.00" from="539691353#0" to="-77781345#2"/>
    <trip id="103" type="passenger" depart="103.00" from="278132384#0" to="-447326319#1"/>
    <trip id="104" type="passenger" depart="104.00" from="220996671" to="89530503#6"/>
    <trip id="105" type="passenger" depart="105.00" from="-85701989" to="769466394#0"/>
    <trip id="106" type="passenger" depart="106.00" from="533682528#4" to="386834060#9"/>
    <trip id="107" type="passenger" depart="107.00" from="890559137#1" to="970631000#3"/>
    <trip id="108" type="passenger" depart="108.00" from="69012634#0" to="75413336#1"/>
    <trip id="109" type="passenger" depart="109.00" from="-72644044#3" to="-89530503#4"/>
    <trip id="110" type="passenger" depart="110.00" from="890681699#1" to="69416764#1"/>
    <trip id="111" type="passenger" depart="111.00" from="664968457#0" to="75679316#2"/>
    <trip id="112" type="passenger" depart="112.00" from="-447326319#0" to="70056689#0"/>
    <trip id="113" type="passenger" depart="113.00" from="563505740#1" to="77790788#0"/>
    <trip id="114" type="passenger" depart="114.00" from="-72644045#0" to="890559265#3"/>
    <trip id="115" type="passenger" depart="115.00" from="-563505765#0" to="-75413331#0"/>
    <trip id="116" type="passenger" depart="116.00" from="70056689#3" to="72641085#3"/>
    <trip id="117" type="passenger" depart="117.00" from="-85631065#1" to="-70200192#5"/>
    <trip id="118" type="passenger" depart="118.00" from="85631060#1" to="-85631072#8"/>
    <trip id="119" type="passenger" depart="119.00" from="70056689#20" to="70200195#14"/>
    <trip id="120" type="passenger" depart="120.00" from="365875109#1" to="69830501#6"/>
    <trip id="121" type="passenger" depart="121.00" from="563505765#8" to="85703442#2"/>
    <trip id="122" type="passenger" depart="122.00" from="-76845633#2" to="75413332#1"/>
    <trip id="123" type="passenger" depart="123.00" from="-85631069#0" to="278132384#1"/>
    <trip id="124" type="passenger" depart="124.00" from="72508818" to="-90743683#0"/>
    <trip id="125" type="passenger" depart="125.00" from="1047718297" to="75679319#4"/>
    <trip id="126" type="passenger" depart="126.00" from="-563505734#2" to="535558320#10"/>
    <trip id="127" type="passenger" depart="127.00" from="FEEC" to="970631000#4"/>
    <trip id="128" type="passenger" depart="128.00" from="-563505734#3" to="-77781345#1"/>
    <trip id="129" type="passenger" depart="129.00" from="-85701989" to="85701998"/>
    <trip id="130" type="passenger" depart="130.00" from="77948763" to="77948766"/>
    <trip id="131" type="passenger" depart="131.00" from="183658213#1" to="-72644721#1"/>
    <trip id="132" type="passenger" depart="132.00" from="77709899#0" to="75259405#1"/>
    <trip id="133" type="passenger" depart="133.00" from="70200192#1" to="89530507"/>
    <trip id="134" type="passenger" depart="134.00" from="72508573#13" to="-147379106#0"/>
    <trip id="135" type="passenger" depart="135.00" from="77674947#3" to="-89530507"/>
    <trip id="136" type="passenger" depart="136.00" from="72508815#18" to="887737023"/>
    <trip id="137" type="passenger" depart="137.00" from="-70200198#6" to="-70080981#1"/>
    <trip id="138" type="passenger" depart="138.00" from="-69416763#1" to="69012634#1"/>
    <trip id="139" type="passenger" depart="139.00" from="-85701998" to="70080980#5"/>
    <trip id="140" type="passenger" depart="140.00" from="75413331#1" to="-76845636#1"/>
    <trip id="141" type="passenger" depart="141.00" from="70200197#2" to="-85701990#0"/>
    <trip id="142" type="passenger" depart="142.00" from="539691353#6" to="85631074#0"/>
    <trip id="143" type="passenger" depart="143.00" from="77781345#1" to="-563505769#5"/>
    <trip id="144" type="passenger" depart="144.00" from="386834060#1" to="-889993132#2"/>
    <trip id="145" type="passenger" depart="145.00" from="-1054468192#2" to="75701374#5"/>
    <trip id="146" type="passenger" depart="146.00" from="70200198#0" to="-85701988#1"/>
    <trip id="147" type="passenger" depart="147.00" from="75679256#4" to="689691699#1"/>
    <trip id="148" type="passenger" depart="148.00" from="386834060#8" to="-147379107#0"/>
    <trip id="149" type="passenger" depart="149.00" from="-563505737#1" to="78684176#3"/>
    <trip id="150" type="passenger" depart="150.00" from="85631072#4" to="689691698#13"/>
    <trip id="151" type="passenger" depart="151.00" from="77709899#1" to="69830501#4"/>
    <trip id="152" type="passenger" depart="152.00" from="-72508821#5" to="-70200197#2"/>
    <trip id="153" type="passenger" depart="153.00" from="-970630999#1" to="85631072#10"/>
    <trip id="155" type="passenger" depart="155.00" from="85631072#0" to="-77680543#2"/>
    <trip id="156" type="passenger" depart="156.00" from="-85631074#0" to="-691836138#1"/>
    <trip id="157" type="passenger" depart="157.00" from="75701376#6" to="78684178#1"/>
    <trip id="158" type="passenger" depart="158.00" from="329703620#1" to="70200195#16"/>
    <trip id="159" type="passenger" depart="159.00" from="-72644044#3" to="85701995#3"/>
    <trip id="160" type="passenger" depart="160.00" from="77873314#3" to="89430987#1"/>
    <trip id="161" type="passenger" depart="161.00" from="77674945#1" to="78684176#0"/>
    <trip id="162" type="passenger" depart="162.00" from="-147419826#4" to="75679256#10"/>
    <trip id="163" type="passenger" depart="163.00" from="1130964472" to="85701996#0"/>
    <trip id="165" type="passenger" depart="165.00" from="77674945#1" to="-85701993#2"/>
    <trip id="166" type="passenger" depart="166.00" from="769466394#1" to="-70056691#0"/>
    <trip id="168" type="passenger" depart="168.00" from="-77790815#0" to="77674950#1"/>
    <trip id="169" type="passenger" depart="169.00" from="535556339#1" to="-970630999#2"/>
    <trip id="170" type="passenger" depart="170.00" from="77674918#2" to="-78684176#2"/>
    <trip id="171" type="passenger" depart="171.00" from="-147419826#1" to="-75413339#4"/>
    <trip id="173" type="passenger" depart="173.00" from="890593765" to="-890076349#2"/>
    <trip id="174" type="passenger" depart="174.00" from="70200199#1" to="329703619#3"/>
    <trip id="175" type="passenger" depart="175.00" from="89530503#1" to="564511813#0"/>
    <trip id="176" type="passenger" depart="176.00" from="889430998" to="-70080981#0"/>
    <trip id="177" type="passenger" depart="177.00" from="890738229#1" to="-75259405#7"/>
    <trip id="178" type="passenger" depart="178.00" from="890586226" to="-85701991"/>
    <trip id="179" type="passenger" depart="179.00" from="-69416764#1" to="447326050#1"/>
    <trip id="180" type="passenger" depart="180.00" from="75413342" to="1054468187#2"/>
    <trip id="181" type="passenger" depart="181.00" from="70080980#2" to="563505756#1"/>
    <trip id="182" type="passenger" depart="182.00" from="237036477#15" to="69416762#1"/>
    <trip id="183" type="passenger" depart="183.00" from="-856633554#1" to="75259406#2"/>
    <trip id="184" type="passenger" depart="184.00" from="-1046248579#2" to="85701990#1"/>
    <trip id="185" type="passenger" depart="185.00" from="564511813#0" to="75413336#3"/>
    <trip id="186" type="passenger" depart="186.00" from="75679256#7" to="72508821#3"/>
    <trip id="187" type="passenger" depart="187.00" from="147419852#0" to="-539691352#1"/>
    <trip id="188" type="passenger" depart="188.00" from="72508815#2" to="147379107#0"/>
    <trip id="189" type="passenger" depart="189.00" from="1013410328" to="77781347#1"/>
    <trip id="190" type="passenger" depart="190.00" from="75413333#0" to="-90743683#1"/>
    <trip id="191" type="passenger" depart="191.00" from="-970631000#0" to="329703621#7"/>
    <trip id="192" type="passenger" depart="192.00" from="278132384#2" to="-89530503#3"/>
    <trip id="193" type="passenger" depart="193.00" from="-70200197#0" to="386834060#3"/>
    <trip id="194" type="passenger" depart="194.00" from="889486571#1" to="72644044#2"/>
    <trip id="195" type="passenger" depart="195.00" from="85631072#2" to="70200193#4"/>
    <trip id="196" type="passenger" depart="196.00" from="-89530503#4" to="689691698#4"/>
    <trip id="197" type="passenger" depart="197.00" from="-1046248579#0" to="-890738229#5"/>
    <trip id="198" type="passenger" depart="198.00" from="430268897" to="69416764#2"/>
    <trip id="199" type="passenger" depart="199.00" from="72508573#2" to="535725901#0"/>
    <trip id="200" type="passenger" depart="200.00" from="447326319#2" to="-77781345#2"/>
    <trip id="201" type="passenger" depart="201.00" from="535725903#0" to="85631072#14"/>
    <trip id="202" type="passenger" depart="202.00" from="77674918#3" to="-75259400#4"/>
    <trip id="203" type="passenger" depart="203.00" from="-563505765#8" to="563505765#0"/>
    <trip id="204" type="passenger" depart="204.00" from="70200197#0" to="147379112#1"/>
    <trip id="205" type="passenger" depart="205.00" from="77674947#5" to="75679319#3"/>
    <trip id="206" type="passenger" depart="206.00" from="72508821#1" to="-77948763"/>
    <trip id="207" type="passenger" depart="207.00" from="-75701376#2" to="-147416171#0"/>
    <trip id="208" type="passenger" depart="208.00" from="-85631072#13" to="538971324"/>
    <trip id="209" type="passenger" depart="209.00" from="77781347#1" to="-563505734#3"/>
    <trip id="210" type="passenger" depart="210.00" from="329703621#8" to="70200197#0"/>
    <trip id="211" type="passenger" depart="211.00" from="-75413339#3" to="75259400#2"/>
    <trip id="212" type="passenger" depart="212.00" from="563505734#3" to="-85631072#2"/>
    <trip id="213" type="passenger" depart="213.00" from="72508573#5" to="-1075116935#0"/>
    <trip id="214" type="passenger" depart="214.00" from="75679316#2" to="75701374#2"/>
    <trip id="215" type="passenger" depart="215.00" from="-69416763#0" to="447326043"/>
    <trip id="216" type="passenger" depart="216.00" from="-75259405#0" to="890559137#1"/>
    <trip id="217" type="passenger" depart="217.00" from="563505764#1" to="-333333538"/>
    <trip id="218" type="passenger" depart="218.00" from="-85631072#9" to="77781347#2"/>
    <trip id="220" type="passenger" depart="220.00" from="72508815#7" to="906065938"/>
    <trip id="221" type="passenger" depart="221.00" from="70056689#4" to="890063336#3"/>
    <trip id="222" type="passenger" depart="222.00" from="85631065#0" to="70200192#9"/>
    <trip id="223" type="passenger" depart="223.00" from="75413333#0" to="563505743#2"/>
    <trip id="224" type="passenger" depart="224.00" from="77709896#1" to="689691698#4"/>
    <trip id="225" type="passenger" depart="225.00" from="85631071#0" to="75679307#1"/>
    <trip id="226" type="passenger" depart="226.00" from="537232374#0" to="-85701987#1"/>
    <trip id="227" type="passenger" depart="227.00" from="-85631072#4" to="70200199#0"/>
    <trip id="228" type="passenger" depart="228.00" from="75679337#5" to="563505767#1"/>
    <trip id="229" type="passenger" depart="229.00" from="70200195#20" to="-889486571#1"/>
    <trip id="230" type="passenger" depart="230.00" from="-563505740#2" to="-890738229#3"/>
    <trip id="231" type="passenger" depart="231.00" from="-85701997#2" to="1054468193#2"/>
    <trip id="232" type="passenger" depart="232.00" from="627798939#1" to="-70200199#8"/>
    <trip id="233" type="passenger" depart="233.00" from="-78684178#2" to="73961832"/>
    <trip id="234" type="passenger" depart="234.00" from="75259405#0" to="-533682528#5"/>
    <trip id="235" type="passenger" depart="235.00" from="329703620#3" to="689691698#0"/>
    <trip id="236" type="passenger" depart="236.00" from="362639206" to="-77674920#1"/>
    <trip id="237" type="passenger" depart="237.00" from="365875111" to="85631072#9"/>
    <trip id="238" type="passenger" depart="238.00" from="69830501#1" to="75259400#0"/>
    <trip id="240" type="passenger" depart="240.00" from="223126919#0" to="-1075116935#1"/>
    <trip id="241" type="passenger" depart="241.00" from="147412866#1" to="75679325#1"/>
    <trip id="242" type="passenger" depart="242.00" from="77783516#1" to="890076349#0"/>
    <trip id="243" type="passenger" depart="243.00" from="365875109#1" to="75679316#1"/>
    <trip id="244" type="passenger" depart="244.00" from="689691697" to="70080980#2"/>
    <trip id="245" type="passenger" depart="245.00" from="-77783516#0" to="-77783501#1"/>
    <trip id="246" type="passenger" depart="246.00" from="447326049#3" to="-147419852#2"/>
    <trip id="247" type="passenger" depart="247.00" from="147379107#2" to="72644044#5"/>
    <trip id="248" type="passenger" depart="248.00" from="329703619#2" to="-72644727#1"/>
    <trip id="249" type="passenger" depart="249.00" from="535558320#7" to="-70200197#3"/>
    <trip id="250" type="passenger" depart="250.00" from="70200195#13" to="-147419826#4"/>
    <trip id="251" type="passenger" depart="251.00" from="237036477#8" to="693637327#1"/>
    <trip id="252" type="passenger" depart="252.00" from="-147419852#2" to="70200199#9"/>
    <trip id="253" type="passenger" depart="253.00" from="-70200199#1" to="535558320#7"/>
    <trip id="254" type="passenger" depart="254.00" from="-365875109#1" to="237036477#14"/>
    <trip id="255" type="passenger" depart="255.00" from="-77680543#2" to="1075116935#1"/>
    <trip id="256" type="passenger" depart="256.00" from="75679333#8" to="237036477#14"/>
    <trip id="257" type="passenger" depart="257.00" from="75679319#0" to="77709899#1"/>
    <trip id="258" type="passenger" depart="258.00" from="-856607131#3" to="-563505765#4"/>
    <trip id="259" type="passenger" depart="259.00" from="-147412859#2" to="664968457#0"/>
    <trip id="260" type="passenger" depart="260.00" from="begin" to="147419826#2"/>
    <trip id="261" type="passenger" depart="261.00" from="72508572#1" to="76845633#0"/>
    <trip id="262" type="passenger" depart="262.00" from="72508573#1" to="75679328#2"/>
    <trip id="263" type="passenger" depart="263.00" from="890063336#4" to="-75701376#5"/>
    <trip id="264" type="passenger" depart="264.00" from="-147412866#2" to="-72644044#1"/>
    <trip id="265" type="passenger" depart="265.00" from="-70200194#0" to="72508821#1"/>
    <trip id="266" type="passenger" depart="266.00" from="69322779#4" to="-77783446#0"/>
    <trip id="267" type="passenger" depart="267.00" from="75259400#1" to="75701371"/>
    <trip id="268" type="passenger" depart="268.00" from="-75259399" to="70080981#2"/>
    <trip id="269" type="passenger" depart="269.00" from="75679307#4" to="-70078009#3"/>
    <trip id="270" type="passenger" depart="270.00" from="77674950#1" to="890586228"/>
    <trip id="271" type="passenger" depart="271.00" from="-69416764#1" to="-147419826#1"/>
    <trip id="272" type="passenger" depart="272.00" from="-970631000#4" to="72644044#2"/>
    <trip id="273" type="passenger" depart="273.00" from="890559138" to="278132384#3"/>
    <trip id="274" type="passenger" depart="274.00" from="75413329#2" to="-563505740#1"/>
    <trip id="275" type="passenger" depart="275.00" from="72644725#1" to="70200195#5"/>
    <trip id="276" type="passenger" depart="276.00" from="-69012634#4" to="75701374#7"/>
    <trip id="277" type="passenger" depart="277.00" from="77781347#2" to="70078009#0"/>
    <trip id="278" type="passenger" depart="278.00" from="-70200192#5" to="89530503#4"/>
    <trip id="279" type="passenger" depart="279.00" from="76845629" to="147412875#1"/>
    <trip id="280" type="passenger" depart="280.00" from="386834060#9" to="197940943#0"/>
    <trip id="281" type="passenger" depart="281.00" from="563505743#0" to="147379116#9"/>
    <trip id="282" type="passenger" depart="282.00" from="77781347#1" to="77676171"/>
    <trip id="283" type="passenger" depart="283.00" from="-69416760#2" to="890559265#3"/>
    <trip id="284" type="passenger" depart="284.00" from="70200197#4" to="77709896#3"/>
    <trip id="285" type="passenger" depart="285.00" from="75259405#2" to="447326319#0"/>
    <trip id="286" type="passenger" depart="286.00" from="75416306#3" to="890586764"/>
    <trip id="287" type="passenger" depart="287.00" from="-85701996#0" to="77674945#2"/>
    <trip id="288" type="passenger" depart="288.00" from="564511812" to="539691353#2"/>
    <trip id="289" type="passenger" depart="289.00" from="447326049#2" to="75416306#3"/>
    <trip id="290" type="passenger" depart="290.00" from="-85701993#1" to="77783516#2"/>
    <trip id="291" type="passenger" depart="291.00" from="77709896#2" to="-563505769#10"/>
    <trip id="292" type="passenger" depart="292.00" from="77948766" to="-85631072#2"/>
    <trip id="293" type="passenger" depart="293.00" from="535558320#3" to="70200192#4"/>
    <trip id="294" type="passenger" depart="294.00" from="220996671" to="-147419852#1"/>
    <trip id="295" type="passenger" depart="295.00" from="77783446#1" to="-75259407"/>
    <trip id="296" type="passenger" depart="296.00" from="-77680543#3" to="77674922#3"/>
    <trip id="297" type="passenger" depart="297.00" from="147379112#1" to="78592298#1"/>
    <trip id="298" type="passenger" depart="298.00" from="75259400#4" to="-889993132#1"/>
    <trip id="299" type="passenger" depart="299.00" from="-147379107#1" to="890063336#0"/>
    <trip id="300" type="passenger" depart="300.00" from="-563505766#1" to="75413339#0"/>
    <trip id="301" type="passenger" depart="301.00" from="539691353#6" to="75679333#6"/>
    <trip id="302" type="passenger" depart="302.00" from="72644725#1" to="72508572#0"/>
    <trip id="303" type="passenger" depart="303.00" from="547113479" to="77674918#2"/>
    <trip id="304" type="passenger" depart="304.00" from="-563505769#5" to="-77948714#0"/>
    <trip id="305" type="passenger" depart="305.00" from="72644725#3" to="-970631000#1"/>
    <trip id="306" type="passenger" depart="306.00" from="69416763#1" to="537250022"/>
    <trip id="307" type="passenger" depart="307.00" from="563505769#3" to="447326043"/>
    <trip id="308" type="passenger" depart="308.00" from="75679299#1" to="147379107#1"/>
    <trip id="309" type="passenger" depart="309.00" from="75259400#7" to="-85703442#0"/>
    <trip id="310" type="passenger" depart="310.00" from="-856607131#2" to="-70200192#8"/>
    <trip id="311" type="passenger" depart="311.00" from="-75413336#3" to="-70200192#5"/>
    <trip id="312" type="passenger" depart="312.00" from="564511809#0" to="75679337#1"/>
    <trip id="313" type="passenger" depart="313.00" from="-75413330#0" to="-77781347#1"/>
    <trip id="314" type="passenger" depart="314.00" from="539691352#0" to="75413341#1"/>
    <trip id="315" type="passenger" depart="315.00" from="89431163#2" to="563505769#13"/>
    <trip id="316" type="passenger" depart="316.00" from="-890076349#2" to="-69012634#3"/>
    <trip id="317" type="passenger" depart="317.00" from="-75413339#2" to="-78684176#2"/>
    <trip id="318" type="passenger" depart="318.00" from="-75259405#6" to="-147379112#0"/>
    <trip id="319" type="passenger" depart="319.00" from="563505769#9" to="-889486571#1"/>
    <trip id="320" type="passenger" depart="320.00" from="89430987#0" to="69012634#1"/>
    <trip id="321" type="passenger" depart="321.00" from="73961832" to="-70200197#0"/>
    <trip id="322" type="passenger" depart="322.00" from="77874668#2" to="563505734#1"/>
    <trip id="323" type="passenger" depart="323.00" from="77881557#0" to="69416760#2"/>
    <trip id="324" type="passenger" depart="324.00" from="535558321#1" to="447326322#1"/>
    <trip id="325" type="passenger" depart="325.00" from="-75413329#1" to="-365875109#0"/>
    <trip id="326" type="passenger" depart="326.00" from="889992192" to="539410728"/>
    <trip id="327" type="passenger" depart="327.00" from="77674950#7" to="329703620#1"/>
    <trip id="328" type="passenger" depart="328.00" from="-563505734#4" to="70200195#9"/>
    <trip id="329" type="passenger" depart="329.00" from="-430268897" to="-72641085#1"/>
    <trip id="330" type="passenger" depart="330.00" from="69322779#0" to="-970630999#0"/>
    <trip id="331" type="passenger" depart="331.00" from="970631000#1" to="-70200192#3"/>