<?xml version="1.0" encoding="UTF-8"?>

<!-- generated on 2024-11-29 16:57:23.449953 by osmWebWizard.py UNKNOWN
<configuration>
    <net-file value="/home/renan/Sumo/usp/osm.net.xml.gz"/>
    <output-trip-file value="/home/renan/Sumo/usp/osm.passenger.trips.xml"/>
    <route-file value="/home/renan/Sumo/usp/osm.passenger.rou.xml"/>
    <prefix value="veh"/>
    <trip-attributes value="departLane=&quot;best&quot;"/>
    <fringe-start-attributes value="departSpeed=&quot;max&quot;"/>
    <vehicle-class value="passenger"/>
    <lanes value="True"/>
    <fringe-factor value="5"/>
    <allow-fringe.min-length value="1000.0"/>
    <via-edge-types value="highway.motorway,highway.motorway_link,highway.trunk_link,highway.primary_link,highway.secondary_link,highway.tertiary_link"/>
    <min-distance value="300.0"/>
    <min-distance.fringe value="10.0"/>
    <remove-loops value="True"/>
    <validate value="True"/>
    <insertion-density value="12.0"/>
</configuration>
-->

<!-- generated on 2024-11-29 16:57:21 by Eclipse SUMO duarouter Version 1.21.0
<duarouterConfiguration xmlns:xsi="http://www.w3.org/2001/XMLSchema-instance" xsi:noNamespaceSchemaLocation="http://sumo.dlr.de/xsd/duarouterConfiguration.xsd">

    <input>
        <net-file value="/home/renan/Sumo/usp/osm.net.xml.gz"/>
        <route-files value="/home/renan/Sumo/usp/osm.passenger.trips.xml"/>
    </input>

    <output>
        <output-file value="/home/renan/Sumo/usp/osm.passenger.trips.xml.tmp"/>
        <alternatives-output value="NUL"/>
        <write-trips value="true"/>
    </output>

    <processing>
        <remove-loops value="true"/>
    </processing>

    <time>
        <begin value="0.0"/>
        <end value="3600.0"/>
    </time>

    <report>
        <no-warnings value="true"/>
        <ignore-errors value="true"/>
        <no-step-log value="true"/>
    </report>

</duarouterConfiguration>
-->

<routes xmlns:xsi="http://www.w3.org/2001/XMLSchema-instance" xsi:noNamespaceSchemaLocation="http://sumo.dlr.de/xsd/routes_file.xsd">
    <vType id="veh_passenger" vClass="passenger"/>
    <trip id="veh0" type="veh_passenger" depart="0.00" departLane="best" departSpeed="max" from="396327566" to="147921561"/>
    <trip id="veh1" type="veh_passenger" depart="0.87" departLane="best" from="134463973#3" to="-79212131#1"/>
    <trip id="veh2" type="veh_passenger" depart="1.74" departLane="best" from="431711354" to="40254253#0"/>
    <trip id="veh4" type="veh_passenger" depart="3.48" departLane="best" from="174392486#3" to="-147921592#0"/>
    <trip id="veh6" type="veh_passenger" depart="5.23" departLane="best" from="-147921564" to="-662867719#0"/>
    <trip id="veh7" type="veh_passenger" depart="6.10" departLane="best" from="396396359#1" to="-287537143"/>
    <trip id="veh10" type="veh_passenger" depart="8.71" departLane="best" departSpeed="max" from="154246566#0" to="-418324665#1"/>
    <trip id="veh11" type="veh_passenger" depart="9.58" departLane="best" from="932653157" to="410115277"/>
    <trip id="veh12" type="veh_passenger" depart="10.45" departLane="best" departSpeed="max" from="-337855373" to="-277293534"/>
    <trip id="veh13" type="veh_passenger" depart="11.32" departLane="best" from="519409043#4" to="382973267#0"/>
    <trip id="veh14" type="veh_passenger" depart="12.20" departLane="best" departSpeed="max" from="451574737#0" to="423988870-AddedOnRampEdge"/>
    <trip id="veh15" type="veh_passenger" depart="13.07" departLane="best" departSpeed="max" from="278712445" to="936126646"/>
    <trip id="veh16" type="veh_passenger" depart="13.94" departLane="best" from="-158623814#1" to="244739215#0"/>
    <trip id="veh17" type="veh_passenger" depart="14.81" departLane="best" departSpeed="max" from="472334768" to="39013729"/>
    <trip id="veh18" type="veh_passenger" depart="15.68" departLane="best" departSpeed="max" from="59515647#0" to="337862267"/>
    <trip id="veh19" type="veh_passenger" depart="16.55" departLane="best" departSpeed="max" from="410114825#0" to="154146793#1"/>
    <trip id="veh20" type="veh_passenger" depart="17.42" departLane="best" departSpeed="max" from="-903358173" to="1328707709"/>
    <trip id="veh22" type="veh_passenger" depart="19.16" departLane="best" departSpeed="max" from="-37736752#2" to="1309921598#1"/>
    <trip id="veh24" type="veh_passenger" depart="20.91" departLane="best" from="158621104#4" to="73947599#6"/>
    <trip id="veh25" type="veh_passenger" depart="21.78" departLane="best" departSpeed="max" from="1315843225" to="866223884#4"/>
    <trip id="veh26" type="veh_passenger" depart="22.65" departLane="best" from="396359122" to="389457111"/>
    <trip id="veh27" type="veh_passenger" depart="23.52" departLane="best" departSpeed="max" from="-464643564" to="423988870-AddedOnRampEdge"/>
    <trip id="veh28" type="veh_passenger" depart="24.39" departLane="best" departSpeed="max" from="-44868250" to="158621196#1"/>
    <trip id="veh29" type="veh_passenger" depart="25.26" departLane="best" from="937404743#1" to="396356410"/>
    <trip id="veh31" type="veh_passenger" depart="27.01" departLane="best" departSpeed="max" from="4769589" to="44813267#1"/>
    <trip id="veh32" type="veh_passenger" depart="27.88" departLane="best" departSpeed="max" from="-903790581" to="-147921607"/>
    <trip id="veh35" type="veh_passenger" depart="30.49" departLane="best" from="679299186#1" to="147921592#5"/>
    <trip id="veh36" type="veh_passenger" depart="31.36" departLane="best" from="396401333#0" to="15967012"/>
    <trip id="veh37" type="veh_passenger" depart="32.23" departLane="best" from="79212127#0" to="229931041#5"/>
    <trip id="veh38" type="veh_passenger" depart="33.10" departLane="best" from="1312092210" to="-949474631"/>
    <trip id="veh39" type="veh_passenger" depart="33.97" departLane="best" from="296573811#3" to="108052761#4"/>
    <trip id="veh40" type="veh_passenger" depart="34.85" departLane="best" from="337855375#1" to="79211444"/>
    <trip id="veh41" type="veh_passenger" depart="35.72" departLane="best" from="171279307#6" to="-79212126#0"/>
    <trip id="veh43" type="veh_passenger" depart="37.46" departLane="best" departSpeed="max" from="-337855372#2" to="-154146796"/>
    <trip id="veh44" type="veh_passenger" depart="38.33" departLane="best" from="-39013702" to="39013887#2"/>
    <trip id="veh46" type="veh_passenger" depart="40.07" departLane="best" from="-262851654#2" to="158621198"/>
    <trip id="veh47" type="veh_passenger" depart="40.94" departLane="best" departSpeed="max" from="949539678" to="278712417#2"/>
    <trip id="veh48" type="veh_passenger" depart="41.81" departLane="best" from="936134764#1" to="709868360"/>
    <trip id="veh49" type="veh_passenger" depart="42.69" departLane="best" from="446393494#1" to="419945440#1"/>
    <trip id="veh50" type="veh_passenger" depart="43.56" departLane="best" from="-40268669#1" to="287537084#1"/>
    <trip id="veh51" type="veh_passenger" depart="44.43" departLane="best" departSpeed="max" from="1315843225" to="396356822#4"/>
    <trip id="veh52" type="veh_passenger" depart="45.30" departLane="best" departSpeed="max" from="-39013728#2" to="174392486#2"/>
    <trip id="veh53" type="veh_passenger" depart="46.17" departLane="best" from="229931041#4" to="932652642#0"/>
    <trip id="veh54" type="veh_passenger" depart="47.04" departLane="best" from="679299186#1" to="108052761#6"/>
    <trip id="veh55" type="veh_passenger" depart="47.91" departLane="best" from="26780532#1" to="-44871125#0"/>
    <trip id="veh56" type="veh_passenger" depart="48.78" departLane="best" departSpeed="max" from="79212126#0" to="709877684"/>
    <trip id="veh57" type="veh_passenger" depart="49.65" departLane="best" departSpeed="max" from="147921587" to="396355606"/>
    <trip id="veh58" type="veh_passenger" depart="50.53" departLane="best" from="-385944359#0" to="-41565545"/>
    <trip id="veh59" type="veh_passenger" depart="51.40" departLane="best" departSpeed="max" from="444216488" to="287537084#7"/>
    <trip id="veh60" type="veh_passenger" depart="52.27" departLane="best" from="44813260#2" to="28504807#11"/>
    <trip id="veh61" type="veh_passenger" depart="53.14" departLane="best" departSpeed="max" from="-1073681448" to="151583315"/>
    <trip id="veh62" type="veh_passenger" depart="54.01" departLane="best" from="-146627237" to="855795570#1"/>
    <trip id="veh63" type="veh_passenger" depart="54.88" departLane="best" from="679304327" to="535685740"/>
    <trip id="veh64" type="veh_passenger" depart="55.75" departLane="best" from="150545097#0" to="-154246574"/>
    <trip id="veh65" type="veh_passenger" depart="56.62" departLane="best" from="679299186#3" to="918460002#1"/>
    <trip id="veh66" type="veh_passenger" depart="57.49" departLane="best" from="288040810#0" to="251092437"/>
    <trip id="veh68" type="veh_passenger" depart="59.24" departLane="best" departSpeed="max" from="444219426#0" to="39013883#2"/>
    <trip id="veh69" type="veh_passenger" depart="60.11" departLane="best" departSpeed="max" from="250047317" to="296573591#4"/>
    <trip id="veh70" type="veh_passenger" depart="60.98" departLane="best" departSpeed="max" from="1312798924" to="735447828"/>
    <trip id="veh71" type="veh_passenger" depart="61.85" departLane="best" from="174392487#0" to="-79210042#1"/>
    <trip id="veh72" type="veh_passenger" depart="62.72" departLane="best" from="28504807#13" to="423988871"/>
    <trip id="veh73" type="veh_passenger" depart="63.59" departLane="best" from="-79211443" to="147921559#1"/>
    <trip id="veh74" type="veh_passenger" depart="64.46" departLane="best" departSpeed="max" from="949474632" to="396396148"/>
    <trip id="veh75" type="veh_passenger" depart="65.33" departLane="best" from="224370083#0" to="27458435"/>
    <trip id="veh76" type="veh_passenger" depart="66.21" departLane="best" from="-39013886#2" to="-79292771#2"/>
    <trip id="veh78" type="veh_passenger" depart="67.95" departLane="best" from="-918460002#2" to="-79212126#0"/>
    <trip id="veh79" type="veh_passenger" depart="68.82" departLane="best" departSpeed="max" from="-267121809#1" to="393439571"/>
    <trip id="veh80" type="veh_passenger" depart="69.69" departLane="best" departSpeed="max" from="59515635#0" to="224370081#1"/>
    <trip id="veh81" type="veh_passenger" depart="70.56" departLane="best" from="1024910396#0" to="396827405"/>
    <trip id="veh82" type="veh_passenger" depart="71.43" departLane="best" from="-79779784#0" to="39013887#0"/>
    <trip id="veh84" type="veh_passenger" depart="73.17" departLane="best" from="246510547#1" to="44868245#2"/>
    <trip id="veh85" type="veh_passenger" depart="74.05" departLane="best" from="451905933" to="519409046#1"/>
    <trip id="veh86" type="veh_passenger" depart="74.92" departLane="best" departSpeed="max" from="-348777606" to="172643352#0"/>
    <trip id="veh87" type="veh_passenger" depart="75.79" departLane="best" from="174392487#0" to="238019467#3"/>
    <trip id="veh88" type="veh_passenger" depart="76.66" departLane="best" from="422887562#0" to="397917300"/>
    <trip id="veh89" type="veh_passenger" depart="77.53" departLane="best" from="936494416" to="28504807#13"/>
    <trip id="veh90" type="veh_passenger" depart="78.40" departLane="best" from="171279308#1" to="153729959"/>
    <trip id="veh91" type="veh_passenger" depart="79.27" departLane="best" departSpeed="max" from="59515647#0" to="-949474632"/>
    <trip id="veh92" type="veh_passenger" depart="80.14" departLane="best" from="-67975206#2" to="227636030#1-AddedOnRampEdge"/>
    <trip id="veh93" type="veh_passenger" depart="81.02" departLane="best" from="174392486#3" to="1312019336"/>
    <trip id="veh94" type="veh_passenger" depart="81.89" departLane="best" from="-108055399#0" to="82530010#1"/>
    <trip id="veh95" type="veh_passenger" depart="82.76" departLane="best" from="227636030#1" to="709868360"/>
    <trip id="veh96" type="veh_passenger" depart="83.63" departLane="best" from="287537089#3" to="154165007#0"/>
    <trip id="veh98" type="veh_passenger" depart="85.37" departLane="best" from="396354561" to="855296250"/>
    <trip id="veh99" type="veh_passenger" depart="86.24" departLane="best" from="535685740" to="-446393494#0"/>
    <trip id="veh100" type="veh_passenger" depart="87.11" departLane="best" from="267121806#1" to="-79210641"/>
    <trip id="veh101" type="veh_passenger" depart="87.98" departLane="best" from="171279307#8" to="-154246574"/>
    <trip id="veh102" type="veh_passenger" depart="88.86" departLane="best" from="-158623814#2" to="936142496#0"/>
    <trip id="veh103" type="veh_passenger" depart="89.73" departLane="best" departSpeed="max" from="1312798924" to="44868245#1"/>
    <trip id="veh104" type="veh_passenger" depart="90.60" departLane="best" from="229931041#5" to="172643350#6"/>
    <trip id="veh105" type="veh_passenger" depart="91.47" departLane="best" from="932653157" to="937404743#1"/>
    <trip id="veh106" type="veh_passenger" depart="92.34" departLane="best" from="296573370#0" to="147205567#0"/>
    <trip id="veh107" type="veh_passenger" depart="93.21" departLane="best" from="-44813266#1" to="14053851#0"/>
    <trip id="veh108" type="veh_passenger" depart="94.08" departLane="best" from="936131671" to="337873120#1"/>
    <trip id="veh109" type="veh_passenger" depart="94.95" departLane="best" from="28504807#6" to="438457552"/>
    <trip id="veh110" type="veh_passenger" depart="95.82" departLane="best" from="-224370083#2" to="154421019#0"/>
    <trip id="veh111" type="veh_passenger" depart="96.70" departLane="best" departSpeed="max" from="26780552#0" to="67975188#2"/>
    <trip id="veh112" type="veh_passenger" depart="97.57" departLane="best" from="-44813270#0" to="933564012"/>
    <trip id="veh113" type="veh_passenger" depart="98.44" departLane="best" from="28504807#13" to="-471661356#1"/>
    <trip id="veh114" type="veh_passenger" depart="99.31" departLane="best" from="348777604#2" to="402248323"/>
    <trip id="veh116" type="veh_passenger" depart="101.05" departLane="best" from="709876643#7" to="-949474631"/>
    <trip id="veh117" type="veh_passenger" depart="101.92" departLane="best" from="348777604#0" to="39013733#1"/>
    <trip id="veh118" type="veh_passenger" depart="102.79" departLane="best" from="174392486#0" to="154421019#0"/>
    <trip id="veh119" type="veh_passenger" depart="103.66" departLane="best" departSpeed="max" from="27496500#0" to="866223884#0"/>
    <trip id="veh120" type="veh_passenger" depart="104.54" departLane="best" departSpeed="max" from="-79212124" to="410759286#0"/>
    <trip id="veh121" type="veh_passenger" depart="105.41" departLane="best" from="1024910396#0-AddedOffRampEdge" to="15967012"/>
    <trip id="veh122" type="veh_passenger" depart="106.28" departLane="best" from="401130673" to="144843403#3"/>
    <trip id="veh123" type="veh_passenger" depart="107.15" departLane="best" departSpeed="max" from="152578739#0" to="438465324"/>
    <trip id="veh124" type="veh_passenger" depart="108.02" departLane="best" from="26780529#6" to="229931041#4"/>
    <trip id="veh125" type="veh_passenger" depart="108.89" departLane="best" departSpeed="max" from="965890461" to="939137480"/>
    <trip id="veh126" type="veh_passenger" depart="109.76" departLane="best" from="-26780529#8" to="-79210641"/>
    <trip id="veh127" type="veh_passenger" depart="110.63" departLane="best" departSpeed="max" from="1312798924" to="866223883#3"/>
    <trip id="veh128" type="veh_passenger" depart="111.50" departLane="best" departSpeed="max" from="67975203#0" to="770811033#1"/>
    <trip id="veh129" type="veh_passenger" depart="112.38" departLane="best" from="158621104#3" to="-436650382"/>
    <trip id="veh130" type="veh_passenger" depart="113.25" departLane="best" from="4769549#0" to="409892332"/>
    <trip id="veh131" type="veh_passenger" depart="114.12" departLane="best" departSpeed="max" from="389457331#0" to="936142497#0"/>
    <trip id="veh132" type="veh_passenger" depart="114.99" departLane="best" from="396396149#0" to="-108055404#4"/>
    <trip id="veh133" type="veh_passenger" depart="115.86" departLane="best" from="464634175#0" to="40254253#4"/>
    <trip id="veh134" type="veh_passenger" depart="116.73" departLane="best" from="396827403" to="866223884#4"/>
    <trip id="veh135" type="veh_passenger" depart="117.60" departLane="best" from="-40268671#2" to="-377975299#0"/>
    <trip id="veh136" type="veh_passenger" depart="118.47" departLane="best" departSpeed="max" from="-389457111" to="296574027"/>
    <trip id="veh137" type="veh_passenger" depart="119.34" departLane="best" departSpeed="max" from="134463973#0" to="382973267#1"/>
    <trip id="veh138" type="veh_passenger" depart="120.22" departLane="best" departSpeed="max" from="41565545" to="-67975203#0"/>
    <trip id="veh139" type="veh_passenger" depart="121.09" departLane="best" from="396096895#1-AddedOnRampEdge" to="108052761#8"/>
    <trip id="veh140" type="veh_passenger" depart="121.96" departLane="best" departSpeed="max" from="26780399#0" to="79212127#6"/>
    <trip id="veh142" type="veh_passenger" depart="123.70" departLane="best" from="174392487#0" to="1283658671#1"/>
    <trip id="veh143" type="veh_passenger" depart="124.57" departLane="best" from="-108052761#7" to="44813260#3"/>
    <trip id="veh145" type="veh_passenger" depart="126.31" departLane="best" from="432589842" to="296573811#3"/>
    <trip id="veh146" type="veh_passenger" depart="127.18" departLane="best" departSpeed="max" from="-277290447" to="770811034#2"/>
    <trip id="veh147" type="veh_passenger" depart="128.06" departLane="best" from="79210042#0" to="288040810#1"/>
    <trip id="veh148" type="veh_passenger" depart="128.93" departLane="best" from="4769549#1" to="337873120#1"/>
    <trip id="veh149" type="veh_passenger" depart="129.80" departLane="best" departSpeed="max" from="-438457552" to="39013880#2"/>
    <trip id="veh150" type="veh_passenger" depart="130.67" departLane="best" from="151583314#0" to="79212113#1"/>
    <trip id="veh151" type="veh_passenger" depart="131.54" departLane="best" from="44871118" to="709868360"/>
    <trip id="veh152" type="veh_passenger" depart="132.41" departLane="best" from="770811034#0" to="-782093183#1"/>
    <trip id="veh153" type="veh_passenger" depart="133.28" departLane="best" from="-108055395" to="-28504819#2"/>
    <trip id="veh154" type="veh_passenger" depart="134.15" departLane="best" from="44813260#5" to="770811035#1"/>
    <trip id="veh155" type="veh_passenger" depart="135.03" departLane="best" from="171279311#1" to="39013879#0"/>
    <trip id="veh156" type="veh_passenger" depart="135.90" departLane="best" from="-44813265" to="864039148"/>
    <trip id="veh157" type="veh_passenger" depart="136.77" departLane="best" from="61132766#3" to="936126648#0"/>
    <trip id="veh159" type="veh_passenger" depart="138.51" departLane="best" departSpeed="max" from="-147921559#1" to="432589841#4"/>
    <trip id="veh161" type="veh_passenger" depart="140.25" departLane="best" departSpeed="max" from="44871131" to="709868360"/>
    <trip id="veh164" type="veh_passenger" depart="142.87" departLane="best" departSpeed="max" from="662867719#0" to="709868360"/>
    <trip id="veh166" type="veh_passenger" depart="144.61" departLane="best" from="238019465#2" to="146627238#1"/>
    <trip id="veh167" type="veh_passenger" depart="145.48" departLane="best" departSpeed="max" from="44871115" to="79779804#0"/>
    <trip id="veh168" type="veh_passenger" depart="146.35" departLane="best" from="-147916053" to="-572386848"/>
    <trip id="veh169" type="veh_passenger" depart="147.22" departLane="best" from="154146793#2" to="709868360"/>
    <trip id="veh170" type="veh_passenger" depart="148.09" departLane="best" from="936126647#1" to="1312019336"/>
    <trip id="veh171" type="veh_passenger" depart="148.96" departLane="best" from="396355606" to="171279256"/>
    <trip id="veh172" type="veh_passenger" depart="149.83" departLane="best" from="936142496#1" to="287537084#0"/>
    <trip id="veh173" type="veh_passenger" depart="150.71" departLane="best" from="866223883#1" to="-377975299#0"/>
    <trip id="veh174" type="veh_passenger" depart="151.58" departLane="best" departSpeed="max" from="936134764#0" to="-44871125#0"/>
    <trip id="veh175" type="veh_passenger" depart="152.45" departLane="best" from="935534790#0" to="108052761#9"/>
    <trip id="veh176" type="veh_passenger" depart="153.32" departLane="best" departSpeed="max" from="-389457327" to="174392486#2"/>
    <trip id="veh177" type="veh_passenger" depart="154.19" departLane="best" from="422887562#0" to="-147921592#2"/>
    <trip id="veh179" type="veh_passenger" depart="155.93" departLane="best" from="159425469#2" to="337862267"/>
    <trip id="veh180" type="veh_passenger" depart="156.80" departLane="best" departSpeed="max" from="1225549807" to="410146091"/>
    <trip id="veh181" type="veh_passenger" depart="157.67" departLane="best" from="108052761#0" to="832297082"/>
    <trip id="veh182" type="veh_passenger" depart="158.55" departLane="best" from="28504807#11" to="419356122#0"/>
    <trip id="veh183" type="veh_passenger" depart="159.42" departLane="best" from="432589842" to="396909259"/>
    <trip id="veh184" type="veh_passenger" depart="160.29" departLane="best" from="158621100#5-AddedOffRampEdge" to="-174372187"/>
    <trip id="veh185" type="veh_passenger" depart="161.16" departLane="best" from="396827404" to="152411187#3"/>
    <trip id="veh186" type="veh_passenger" depart="162.03" departLane="best" from="151667780" to="679299186#3"/>
    <trip id="veh187" type="veh_passenger" depart="162.90" departLane="best" from="418324665#1" to="144843403#5"/>
    <trip id="veh188" type="veh_passenger" depart="163.77" departLane="best" from="151583315" to="171279307#5"/>
    <trip id="veh189" type="veh_passenger" depart="164.64" departLane="best" from="171279308#0" to="14053545#2"/>
    <trip id="veh190" type="veh_passenger" depart="165.51" departLane="best" from="396824705#0" to="172643350#0"/>
    <trip id="veh191" type="veh_passenger" depart="166.39" departLane="best" from="866223883#4" to="40254253#0"/>
    <trip id="veh192" type="veh_passenger" depart="167.26" departLane="best" from="782134803" to="39013703#0"/>
    <trip id="veh193" type="veh_passenger" depart="168.13" departLane="best" from="147921592#2" to="296573591#1"/>
    <trip id="veh194" type="veh_passenger" depart="169.00" departLane="best" departSpeed="max" from="-1073681448" to="1315843227#0"/>
    <trip id="veh195" type="veh_passenger" depart="169.87" departLane="best" from="182700075" to="337873120#1"/>
    <trip id="veh196" type="veh_passenger" depart="170.74" departLane="best" from="396396151" to="238019467#1"/>
    <trip id="veh197" type="veh_passenger" depart="171.61" departLane="best" from="227636030#0" to="-79210641"/>
    <trip id="veh198" type="veh_passenger" depart="172.48" departLane="best" from="44871118" to="-44813263#2"/>
    <trip id="veh199" type="veh_passenger" depart="173.35" departLane="best" from="28504819#0" to="27427215#1"/>
    <trip id="veh200" type="veh_passenger" depart="174.23" departLane="best" from="396096895#1" to="171279270"/>
    <trip id="veh201" type="veh_passenger" depart="175.10" departLane="best" from="464635419#0" to="438465322#0"/>
    <trip id="veh202" type="veh_passenger" depart="175.97" departLane="best" from="402248323" to="-79292771#2"/>
    <trip id="veh203" type="veh_passenger" depart="176.84" departLane="best" departSpeed="max" from="-79210046#8" to="-147921559#0"/>
    <trip id="veh204" type="veh_passenger" depart="177.71" departLane="best" from="-108052761#4" to="244739184#0"/>
    <trip id="veh205" type="veh_passenger" depart="178.58" departLane="best" from="54223927#1" to="108052761#7"/>
    <trip id="veh206" type="veh_passenger" depart="179.45" departLane="best" departSpeed="max" from="172643351#0" to="39013961#7"/>
    <trip id="veh207" type="veh_passenger" depart="180.32" departLane="best" departSpeed="max" from="-73947599#7" to="405702970#0"/>
    <trip id="veh209" type="veh_passenger" depart="182.07" departLane="best" from="396555312" to="-108052765"/>
    <trip id="veh210" type="veh_passenger" depart="182.94" departLane="best" from="438444456" to="44813260#1"/>
    <trip id="veh211" type="veh_passenger" depart="183.81" departLane="best" departSpeed="max" from="-389457111" to="172643350#7"/>
    <trip id="veh213" type="veh_passenger" depart="185.55" departLane="best" from="27458441#0" to="-154165001"/>
    <trip id="veh214" type="veh_passenger" depart="186.42" departLane="best" departSpeed="max" from="108052765" to="679299186#3"/>
    <trip id="veh215" type="veh_passenger" depart="187.29" departLane="best" departSpeed="max" from="23268061" to="464634174"/>
    <trip id="veh216" type="veh_passenger" depart="188.16" departLane="best" from="396909258" to="936142497#0"/>
    <trip id="veh218" type="veh_passenger" depart="189.91" departLane="best" from="709877684" to="39013686#3"/>
    <trip id="veh220" type="veh_passenger" depart="191.65" departLane="best" departSpeed="max" from="472334768" to="296573591#1"/>
    <trip id="veh221" type="veh_passenger" depart="192.52" departLane="best" from="770811033#2" to="-438440837#1"/>
    <trip id="veh222" type="veh_passenger" depart="193.39" departLane="best" departSpeed="max" from="250047317" to="1078846547#0"/>
    <trip id="veh223" type="veh_passenger" depart="194.26" departLane="best" from="108052763#1" to="396330577"/>
    <trip id="veh225" type="veh_passenger" depart="196.00" departLane="best" from="39013884" to="1222837509"/>
    <trip id="veh226" type="veh_passenger" depart="196.88" departLane="best" departSpeed="max" from="-277293531#1" to="1315843223#0"/>
    <trip id="veh227" type="veh_passenger" depart="197.75" departLane="best" departSpeed="max" from="134463973#0" to="149888648#3"/>
    <trip id="veh229" type="veh_passenger" depart="199.49" departLane="best" departSpeed="max" from="-918460002#3" to="403172572"/>
    <trip id="veh230" type="veh_passenger" depart="200.36" departLane="best" from="410114946" to="158623814#0"/>
    <trip id="veh231" type="veh_passenger" depart="201.23" departLane="best" from="171279315#0" to="287537089#6"/>
    <trip id="veh232" type="veh_passenger" depart="202.10" departLane="best" departSpeed="max" from="172643351#0" to="-687652098"/>
    <trip id="veh233" type="veh_passenger" depart="202.97" departLane="best" from="174392486#1" to="79212127#4"/>
    <trip id="veh234" type="veh_passenger" depart="203.84" departLane="best" from="337855375#1" to="405702970#0"/>
    <trip id="veh235" type="veh_passenger" depart="204.72" departLane="best" departSpeed="max" from="59515635#0" to="44761822"/>
    <trip id="veh237" type="veh_passenger" depart="206.46" departLane="best" from="158604480#8" to="438467406"/>
    <trip id="veh238" type="veh_passenger" depart="207.33" departLane="best" from="585760247" to="932652642#0"/>
    <trip id="veh239" type="veh_passenger" depart="208.20" departLane="best" from="174392486#0" to="438457551"/>
    <trip id="veh240" type="veh_passenger" depart="209.07" departLane="best" from="287537084#4" to="381723748#3"/>
    <trip id="veh241" type="veh_passenger" depart="209.94" departLane="best" from="-79779839" to="-79212126#0"/>
    <trip id="veh242" type="veh_passenger" depart="210.81" departLane="best" departSpeed="max" from="196290637" to="-147921592#0"/>
    <trip id="veh243" type="veh_passenger" depart="211.68" departLane="best" from="154205420" to="402575993"/>
    <trip id="veh244" type="veh_passenger" depart="212.56" departLane="best" from="171279308#3" to="-445847800"/>
    <trip id="veh245" type="veh_passenger" depart="213.43" departLane="best" from="296574026#2" to="-39013882"/>
    <trip id="veh246" type="veh_passenger" depart="214.30" departLane="best" from="39013878#1" to="-147921587"/>
    <trip id="veh247" type="veh_passenger" depart="215.17" departLane="best" from="171279286#0" to="296586087#0"/>
    <trip id="veh248" type="veh_passenger" depart="216.04" departLane="best" from="-147921590#1" to="396356826"/>
    <trip id="veh249" type="veh_passenger" depart="216.91" departLane="best" departSpeed="max" from="-40268675#1" to="238019465#2"/>
    <trip id="veh250" type="veh_passenger" depart="217.78" departLane="best" from="-158623814#4" to="158621196#1"/>
    <trip id="veh251" type="veh_passenger" depart="218.65" departLane="best" from="-79292771#3" to="151667779"/>
    <trip id="veh253" type="veh_passenger" depart="220.40" departLane="best" from="438444460#3" to="54223834"/>
    <trip id="veh254" type="veh_passenger" depart="221.27" departLane="best" from="1171384462#1" to="-262851653#2"/>
    <trip id="veh255" type="veh_passenger" depart="222.14" departLane="best" from="-146627236" to="287537084#7"/>
    <trip id="veh257" type="veh_passenger" depart="223.88" departLane="best" from="396392020" to="440992793"/>
    <trip id="veh260" type="veh_passenger" depart="226.49" departLane="best" departSpeed="max" from="-396771482#2" to="396827405"/>
    <trip id="veh261" type="veh_passenger" depart="227.36" departLane="best" departSpeed="max" from="296574026#0" to="-79212120"/>
    <trip id="veh262" type="veh_passenger" depart="228.24" departLane="best" from="409892120#0" to="44761822"/>
    <trip id="veh264" type="veh_passenger" depart="229.98" departLane="best" departSpeed="max" from="437061827#0" to="37736752#1"/>
    <trip id="veh265" type="veh_passenger" depart="230.85" departLane="best" from="464649014" to="933959035"/>
    <trip id="veh266" type="veh_passenger" depart="231.72" departLane="best" departSpeed="max" from="-389457327" to="-147921569"/>
    <trip id="veh267" type="veh_passenger" depart="232.59" departLane="best" from="151660786" to="40254253#0"/>
    <trip id="veh268" type="veh_passenger" depart="233.46" departLane="best" from="932653157-AddedOffRampEdge" to="15967012-AddedOnRampEdge"/>
    <trip id="veh269" type="veh_passenger" depart="234.33" departLane="best" from="410759285" to="-246510535"/>