<?xml version="1.0" encoding="UTF-8"?>

<!-- generated on 2024-11-29 16:57:41.151665 by generateParkingAreas.py UNKNOWN
<configuration>
    <net-file value="usp/osm.net.xml"/>
    <output-file value="usp/park.add.xml"/>
</configuration>
-->

<additional xmlns:xsi="http://www.w3.org/2001/XMLSchema-instance" xsi:noNamespaceSchemaLocation="http://sumo.dlr.de/xsd/additional_file.xsd">
    <parkingArea id="pa-1073681448" lane="-1073681448_0" roadsideCapacity="52" length="5"/>
    <parkingArea id="pa-108052761#0" lane="-108052761#0_0" roadsideCapacity="24" length="5"/>
    <parkingArea id="pa-108052761#1" lane="-108052761#1_0" roadsideCapacity="6" length="5"/>
    <parkingArea id="pa-108052761#2" lane="-108052761#2_0" roadsideCapacity="11" length="5"/>
    <parkingArea id="pa-108052761#3" lane="-108052761#3_0" roadsideCapacity="10" length="5"/>
    <parkingArea id="pa-108052761#4" lane="-108052761#4_0" roadsideCapacity="18" length="5"/>
    <parkingArea id="pa-108052761#5" lane="-108052761#5_0" roadsideCapacity="14" length="5"/>
    <parkingArea id="pa-108052761#6" lane="-108052761#6_0" roadsideCapacity="25" length="5"/>
    <parkingArea id="pa-108052761#7" lane="-108052761#7_0" roadsideCapacity="5" length="5"/>
    <parkingArea id="pa-108052761#8" lane="-108052761#8_0" roadsideCapacity="20" length="5"/>
    <parkingArea id="pa-108052761#9" lane="-108052761#9_0" roadsideCapacity="2" length="5"/>
    <parkingArea id="pa-108052762#0" lane="-108052762#0_0" roadsideCapacity="12" length="5"/>
    <parkingArea id="pa-108052762#1" lane="-108052762#1_0" roadsideCapacity="32" length="5"/>
    <parkingArea id="pa-108052762#2" lane="-108052762#2_0" roadsideCapacity="43" length="5"/>
    <parkingArea id="pa-108052763#0" lane="-108052763#0_0" roadsideCapacity="13" length="5"/>
    <parkingArea id="pa-108052763#1" lane="-108052763#1_0" roadsideCapacity="23" length="5"/>
    <parkingArea id="pa-108052763#2" lane="-108052763#2_0" roadsideCapacity="7" length="5"/>
    <parkingArea id="pa-108052765" lane="-108052765_0" roadsideCapacity="24" length="5"/>
    <parkingArea id="pa-108055395" lane="-108055395_0" roadsideCapacity="18" length="5"/>
    <parkingArea id="pa-108055399#0" lane="-108055399#0_0" roadsideCapacity="5" length="5"/>
    <parkingArea id="pa-108055399#1" lane="-108055399#1_0" roadsideCapacity="31" length="5"/>
    <parkingArea id="pa-108055399#2" lane="-108055399#2_0" roadsideCapacity="4" length="5"/>
    <parkingArea id="pa-108055404#0" lane="-108055404#0_0" roadsideCapacity="36" length="5"/>
    <parkingArea id="pa-108055404#1" lane="-108055404#1_0" roadsideCapacity="14" length="5"/>
    <parkingArea id="pa-108055404#2" lane="-108055404#2_0" roadsideCapacity="2" length="5"/>
    <parkingArea id="pa-108055404#3" lane="-108055404#3_0" roadsideCapacity="21" length="5"/>
    <parkingArea id="pa-108055404#4" lane="-108055404#4_0" roadsideCapacity="14" length="5"/>
    <parkingArea id="pa-1225549807" lane="-1225549807_0" roadsideCapacity="17" length="5"/>
    <parkingArea id="pa-123051887" lane="-123051887_0" roadsideCapacity="37" length="5"/>
    <parkingArea id="pa-123459648" lane="-123459648_0" roadsideCapacity="12" length="5"/>
    <parkingArea id="pa-1272746388#0" lane="-1272746388#0_0" roadsideCapacity="10" length="5"/>
    <parkingArea id="pa-1275829528" lane="-1275829528_0" roadsideCapacity="56" length="5"/>
    <parkingArea id="pa-1315843222" lane="-1315843222_0" roadsideCapacity="3" length="5"/>
    <parkingArea id="pa-1315843223#1" lane="-1315843223#1_0" roadsideCapacity="16" length="5"/>
    <parkingArea id="pa-1315843225" lane="-1315843225_0" roadsideCapacity="13" length="5"/>
    <parkingArea id="pa-14053851#0" lane="-14053851#0_0" roadsideCapacity="13" length="5"/>
    <parkingArea id="pa-14053851#1" lane="-14053851#1_0" roadsideCapacity="11" length="5"/>
    <parkingArea id="pa-14053851#2" lane="-14053851#2_0" roadsideCapacity="8" length="5"/>
    <parkingArea id="pa-145031444#1" lane="-145031444#1_0" roadsideCapacity="5" length="5"/>
    <parkingArea id="pa-145031444#2" lane="-145031444#2_0" roadsideCapacity="2" length="5"/>
    <parkingArea id="pa-145031444#3" lane="-145031444#3_0" roadsideCapacity="6" length="5"/>
    <parkingArea id="pa-146135549" lane="-146135549_0" roadsideCapacity="77" length="5"/>
    <parkingArea id="pa-146627236" lane="-146627236_0" roadsideCapacity="9" length="5"/>
    <parkingArea id="pa-146627237" lane="-146627237_0" roadsideCapacity="14" length="5"/>
    <parkingArea id="pa-146627238#0" lane="-146627238#0_0" roadsideCapacity="6" length="5"/>
    <parkingArea id="pa-146627238#1" lane="-146627238#1_0" roadsideCapacity="8" length="5"/>
    <parkingArea id="pa-146627238#2" lane="-146627238#2_0" roadsideCapacity="13" length="5"/>
    <parkingArea id="pa-147205573#0" lane="-147205573#0_0" roadsideCapacity="19" length="5"/>
    <parkingArea id="pa-147205573#1" lane="-147205573#1_0" roadsideCapacity="3" length="5"/>
    <parkingArea id="pa-147205573#2" lane="-147205573#2_0" roadsideCapacity="8" length="5"/>
    <parkingArea id="pa-147252848#0" lane="-147252848#0_0" roadsideCapacity="12" length="5"/>
    <parkingArea id="pa-147252848#1" lane="-147252848#1_0" roadsideCapacity="35" length="5"/>
    <parkingArea id="pa-147252855" lane="-147252855_0" roadsideCapacity="24" length="5"/>
    <parkingArea id="pa-147278371#1" lane="-147278371#1_0" roadsideCapacity="60" length="5"/>
    <parkingArea id="pa-147916033" lane="-147916033_0" roadsideCapacity="9" length="5"/>
    <parkingArea id="pa-147916053" lane="-147916053_0" roadsideCapacity="46" length="5"/>
    <parkingArea id="pa-147921555#0" lane="-147921555#0_0" roadsideCapacity="22" length="5"/>
    <parkingArea id="pa-147921555#1" lane="-147921555#1_0" roadsideCapacity="41" length="5"/>
    <parkingArea id="pa-147921556#0" lane="-147921556#0_0" roadsideCapacity="40" length="5"/>
    <parkingArea id="pa-147921556#1" lane="-147921556#1_0" roadsideCapacity="24" length="5"/>
    <parkingArea id="pa-147921559#0" lane="-147921559#0_0" roadsideCapacity="9" length="5"/>
    <parkingArea id="pa-147921559#1" lane="-147921559#1_0" roadsideCapacity="8" length="5"/>
    <parkingArea id="pa-147921561" lane="-147921561_0" roadsideCapacity="44" length="5"/>
    <parkingArea id="pa-147921564" lane="-147921564_0" roadsideCapacity="7" length="5"/>
    <parkingArea id="pa-147921569" lane="-147921569_0" roadsideCapacity="46" length="5"/>
    <parkingArea id="pa-147921587" lane="-147921587_0" roadsideCapacity="21" length="5"/>
    <parkingArea id="pa-147921590#0" lane="-147921590#0_0" roadsideCapacity="8" length="5"/>
    <parkingArea id="pa-147921590#1" lane="-147921590#1_0" roadsideCapacity="6" length="5"/>
    <parkingArea id="pa-147921592#0" lane="-147921592#0_0" roadsideCapacity="9" length="5"/>
    <parkingArea id="pa-147921592#1" lane="-147921592#1_0" roadsideCapacity="8" length="5"/>
    <parkingArea id="pa-147921592#2" lane="-147921592#2_0" roadsideCapacity="8" length="5"/>
    <parkingArea id="pa-147921592#3" lane="-147921592#3_0" roadsideCapacity="8" length="5"/>
    <parkingArea id="pa-147921592#4" lane="-147921592#4_0" roadsideCapacity="8" length="5"/>
    <parkingArea id="pa-147921592#5" lane="-147921592#5_0" roadsideCapacity="7" length="5"/>
    <parkingArea id="pa-147921606" lane="-147921606_0" roadsideCapacity="12" length="5"/>
    <parkingArea id="pa-147921607" lane="-147921607_0" roadsideCapacity="13" length="5"/>
    <parkingArea id="pa-148110937#1" lane="-148110937#1_0" roadsideCapacity="5" length="5"/>
    <parkingArea id="pa-148110937#2" lane="-148110937#2_0" roadsideCapacity="69" length="5"/>
    <parkingArea id="pa-149121809#0" lane="-149121809#0_0" roadsideCapacity="7" length="5"/>
    <parkingArea id="pa-149121809#1" lane="-149121809#1_0" roadsideCapacity="11" length="5"/>
    <parkingArea id="pa-149888643#0" lane="-149888643#0_0" roadsideCapacity="15" length="5"/>
    <parkingArea id="pa-149888643#1" lane="-149888643#1_0" roadsideCapacity="7" length="5"/>
    <parkingArea id="pa-149888643#2" lane="-149888643#2_0" roadsideCapacity="7" length="5"/>
    <parkingArea id="pa-149888648#0" lane="-149888648#0_0" roadsideCapacity="8" length="5"/>
    <parkingArea id="pa-149888648#1" lane="-149888648#1_0" roadsideCapacity="17" length="5"/>
    <parkingArea id="pa-149888648#2" lane="-149888648#2_0" roadsideCapacity="16" length="5"/>
    <parkingArea id="pa-149888648#3" lane="-149888648#3_0" roadsideCapacity="17" length="5"/>
    <parkingArea id="pa-151615196#1" lane="-151615196#1_0" roadsideCapacity="4" length="5"/>
    <parkingArea id="pa-151653729#1" lane="-151653729#1_0" roadsideCapacity="38" length="5"/>
    <parkingArea id="pa-151660780#0" lane="-151660780#0_0" roadsideCapacity="6" length="5"/>
    <parkingArea id="pa-151660780#2" lane="-151660780#2_0" roadsideCapacity="16" length="5"/>
    <parkingArea id="pa-152411187#1" lane="-152411187#1_0" roadsideCapacity="46" length="5"/>
    <parkingArea id="pa-152411187#2" lane="-152411187#2_0" roadsideCapacity="6" length="5"/>
    <parkingArea id="pa-152411187#6" lane="-152411187#6_0" roadsideCapacity="94" length="5"/>
    <parkingArea id="pa-152578739#0" lane="-152578739#0_0" roadsideCapacity="4" length="5"/>
    <parkingArea id="pa-152578739#1" lane="-152578739#1_0" roadsideCapacity="11" length="5"/>
    <parkingArea id="pa-152578739#2" lane="-152578739#2_0" roadsideCapacity="7" length="5"/>
    <parkingArea id="pa-152578739#3" lane="-152578739#3_0" roadsideCapacity="3" length="5"/>
    <parkingArea id="pa-152578746" lane="-152578746_0" roadsideCapacity="17" length="5"/>
    <parkingArea id="pa-152578751" lane="-152578751_0" roadsideCapacity="18" length="5"/>
    <parkingArea id="pa-152578753" lane="-152578753_0" roadsideCapacity="16" length="5"/>
    <parkingArea id="pa-153489141" lane="-153489141_0" roadsideCapacity="48" length="5"/>
    <parkingArea id="pa-153489144" lane="-153489144_0" roadsideCapacity="63" length="5"/>
    <parkingArea id="pa-153921982#2" lane="-153921982#2_0" roadsideCapacity="67" length="5"/>
    <parkingArea id="pa-154139032" lane="-154139032_0" roadsideCapacity="16" length="5"/>
    <parkingArea id="pa-154146788#0" lane="-154146788#0_0" roadsideCapacity="18" length="5"/>
    <parkingArea id="pa-154146792" lane="-154146792_0" roadsideCapacity="35" length="5"/>
    <parkingArea id="pa-154146793#1" lane="-154146793#1_0" roadsideCapacity="10" length="5"/>
    <parkingArea id="pa-154146793#2" lane="-154146793#2_0" roadsideCapacity="8" length="5"/>
    <parkingArea id="pa-154146793#3" lane="-154146793#3_0" roadsideCapacity="6" length="5"/>
    <parkingArea id="pa-154146793#4" lane="-154146793#4_0" roadsideCapacity="12" length="5"/>
    <parkingArea id="pa-154146796" lane="-154146796_0" roadsideCapacity="34" length="5"/>
    <parkingArea id="pa-154146804#0" lane="-154146804#0_0" roadsideCapacity="1" length="5"/>
    <parkingArea id="pa-154146804#1" lane="-154146804#1_0" roadsideCapacity="15" length="5"/>
    <parkingArea id="pa-154165001" lane="-154165001_0" roadsideCapacity="23" length="5"/>
    <parkingArea id="pa-154165007#0" lane="-154165007#0_0" roadsideCapacity="13" length="5"/>
    <parkingArea id="pa-154165007#1" lane="-154165007#1_0" roadsideCapacity="18" length="5"/>
    <parkingArea id="pa-154165009" lane="-154165009_0" roadsideCapacity="21" length="5"/>
    <parkingArea id="pa-154165012" lane="-154165012_0" roadsideCapacity="26" length="5"/>
    <parkingArea id="pa-154165013" lane="-154165013_0" roadsideCapacity="24" length="5"/>
    <parkingArea id="pa-154203931" lane="-154203931_0" roadsideCapacity="10" length="5"/>
    <parkingArea id="pa-154246545#0" lane="-154246545#0_0" roadsideCapacity="7" length="5"/>
    <parkingArea id="pa-154246545#1" lane="-154246545#1_0" roadsideCapacity="7" length="5"/>
    <parkingArea id="pa-154246545#2" lane="-154246545#2_0" roadsideCapacity="6" length="5"/>
    <parkingArea id="pa-154246563" lane="-154246563_0" roadsideCapacity="34" length="5"/>
    <parkingArea id="pa-154246564" lane="-154246564_0" roadsideCapacity="30" length="5"/>
    <parkingArea id="pa-154246566#0" lane="-154246566#0_0" roadsideCapacity="12" length="5"/>
    <parkingArea id="pa-154246566#1" lane="-154246566#1_0" roadsideCapacity="2" length="5"/>
    <parkingArea id="pa-154246566#2" lane="-154246566#2_0" roadsideCapacity="9" length="5"/>
    <parkingArea id="pa-154246566#3" lane="-154246566#3_0" roadsideCapacity="9" length="5"/>
    <parkingArea id="pa-154246574" lane="-154246574_0" roadsideCapacity="72" length="5"/>
    <parkingArea id="pa-154246575" lane="-154246575_0" roadsideCapacity="15" length="5"/>
    <parkingArea id="pa-154246576#0" lane="-154246576#0_0" roadsideCapacity="7" length="5"/>
    <parkingArea id="pa-154246576#1" lane="-154246576#1_0" roadsideCapacity="4" length="5"/>
    <parkingArea id="pa-154246578#0" lane="-154246578#0_0" roadsideCapacity="8" length="5"/>
    <parkingArea id="pa-154246578#1" lane="-154246578#1_0" roadsideCapacity="51" length="5"/>
    <parkingArea id="pa-154246578#2" lane="-154246578#2_0" roadsideCapacity="43" length="5"/>
    <parkingArea id="pa-154960537" lane="-154960537_0" roadsideCapacity="17" length="5"/>
    <parkingArea id="pa-156528070" lane="-156528070_0" roadsideCapacity="7" length="5"/>
    <parkingArea id="pa-158623814#1" lane="-158623814#1_0" roadsideCapacity="24" length="5"/>
    <parkingArea id="pa-158623814#2" lane="-158623814#2_0" roadsideCapacity="2" length="5"/>
    <parkingArea id="pa-158623814#3" lane="-158623814#3_0" roadsideCapacity="17" length="5"/>
    <parkingArea id="pa-158623814#4" lane="-158623814#4_0" roadsideCapacity="2" length="5"/>
    <parkingArea id="pa-158623814#5" lane="-158623814#5_0" roadsideCapacity="15" length="5"/>
    <parkingArea id="pa-158783877#0" lane="-158783877#0_0" roadsideCapacity="8" length="5"/>
    <parkingArea id="pa-158783877#2" lane="-158783877#2_0" roadsideCapacity="16" length="5"/>
    <parkingArea id="pa-158783877#3" lane="-158783877#3_0" roadsideCapacity="2" length="5"/>
    <parkingArea id="pa-158960187#0" lane="-158960187#0_0" roadsideCapacity="49" length="5"/>
    <parkingArea id="pa-158960187#1" lane="-158960187#1_0" roadsideCapacity="5" length="5"/>
    <parkingArea id="pa-158960187#2" lane="-158960187#2_0" roadsideCapacity="2" length="5"/>
    <parkingArea id="pa-159425469#0" lane="-159425469#0_0" roadsideCapacity="25" length="5"/>
    <parkingArea id="pa-159425469#1" lane="-159425469#1_0" roadsideCapacity="23" length="5"/>
    <parkingArea id="pa-159425469#2" lane="-159425469#2_0" roadsideCapacity="7" length="5"/>
    <parkingArea id="pa-159425469#4" lane="-159425469#4_0" roadsideCapacity="11" length="5"/>
    <parkingArea id="pa-159425469#5" lane="-159425469#5_0" roadsideCapacity="4" length="5"/>
    <parkingArea id="pa-159425469#6" lane="-159425469#6_0" roadsideCapacity="8" length="5"/>
    <parkingArea id="pa-174372187" lane="-174372187_0" roadsideCapacity="5" length="5"/>
    <parkingArea id="pa-182700091#1" lane="-182700091#1_0" roadsideCapacity="4" length="5"/>
    <parkingArea id="pa-194582511" lane="-194582511_0" roadsideCapacity="37" length="5"/>
    <parkingArea id="pa-206864076" lane="-206864076_0" roadsideCapacity="4" length="5"/>
    <parkingArea id="pa-224370081#0" lane="-224370081#0_0" roadsideCapacity="15" length="5"/>
    <parkingArea id="pa-224370081#1" lane="-224370081#1_0" roadsideCapacity="7" length="5"/>
    <parkingArea id="pa-224370081#2" lane="-224370081#2_0" roadsideCapacity="7" length="5"/>
    <parkingArea id="pa-224370083#0" lane="-224370083#0_0" roadsideCapacity="31" length="5"/>
    <parkingArea id="pa-224370083#1" lane="-224370083#1_0" roadsideCapacity="31" length="5"/>
    <parkingArea id="pa-224370083#2" lane="-224370083#2_0" roadsideCapacity="6" length="5"/>
    <parkingArea id="pa-224370083#3" lane="-224370083#3_0" roadsideCapacity="24" length="5"/>
    <parkingArea id="pa-226439913" lane="-226439913_0" roadsideCapacity="25" length="5"/>
    <parkingArea id="pa-226439914" lane="-226439914_0" roadsideCapacity="14" length="5"/>
    <parkingArea id="pa-246510535" lane="-246510535_0" roadsideCapacity="12" length="5"/>
    <parkingArea id="pa-246510583" lane="-246510583_0" roadsideCapacity="7" length="5"/>
    <parkingArea id="pa-246510591#0" lane="-246510591#0_0" roadsideCapacity="7" length="5"/>
    <parkingArea id="pa-246510591#1" lane="-246510591#1_0" roadsideCapacity="18" length="5"/>
    <parkingArea id="pa-250047317" lane="-250047317_0" roadsideCapacity="12" length="5"/>
    <parkingArea id="pa-258650432" lane="-258650432_0" roadsideCapacity="39" length="5"/>
    <parkingArea id="pa-260203867#0" lane="-260203867#0_0" roadsideCapacity="34" length="5"/>
    <parkingArea id="pa-260203867#2" lane="-260203867#2_0" roadsideCapacity="17" length="5"/>
    <parkingArea id="pa-260203867#3" lane="-260203867#3_0" roadsideCapacity="40" length="5"/>
    <parkingArea id="pa-262851653#0" lane="-262851653#0_0" roadsideCapacity="2" length="5"/>
    <parkingArea id="pa-262851653#1" lane="-262851653#1_0" roadsideCapacity="8" length="5"/>
    <parkingArea id="pa-262851653#2" lane="-262851653#2_0" roadsideCapacity="6" length="5"/>
    <parkingArea id="pa-262851654#0" lane="-262851654#0_0" roadsideCapacity="2" length="5"/>
    <parkingArea id="pa-262851654#1" lane="-262851654#1_0" roadsideCapacity="1" length="5"/>
    <parkingArea id="pa-262851654#2" lane="-262851654#2_0" roadsideCapacity="15" length="5"/>
    <parkingArea id="pa-262851654#3" lane="-262851654#3_0" roadsideCapacity="18" length="5"/>
    <parkingArea id="pa-262851654#4" lane="-262851654#4_0" roadsideCapacity="55" length="5"/>
    <parkingArea id="pa-262851677" lane="-262851677_0" roadsideCapacity="4" length="5"/>
    <parkingArea id="pa-262851678" lane="-262851678_0" roadsideCapacity="10" length="5"/>
    <parkingArea id="pa-262851679" lane="-262851679_0" roadsideCapacity="23" length="5"/>
    <parkingArea id="pa-263536599#0" lane="-263536599#0_0" roadsideCapacity="4" length="5"/>
    <parkingArea id="pa-263536599#1" lane="-263536599#1_0" roadsideCapacity="9" length="5"/>
    <parkingArea id="pa-263536600#1" lane="-263536600#1_0" roadsideCapacity="3" length="5"/>
    <parkingArea id="pa-263536600#2" lane="-263536600#2_0" roadsideCapacity="3" length="5"/>
    <parkingArea id="pa-263536600#3" lane="-263536600#3_0" roadsideCapacity="11" length="5"/>
    <parkingArea id="pa-263536610#0" lane="-263536610#0_0" roadsideCapacity="24" length="5"/>
    <parkingArea id="pa-263536610#1" lane="-263536610#1_0" roadsideCapacity="40" length="5"/>
    <parkingArea id="pa-263536610#2" lane="-263536610#2_0" roadsideCapacity="12" length="5"/>
    <parkingArea id="pa-267121806#0" lane="-267121806#0_0" roadsideCapacity="7" length="5"/>
    <parkingArea id="pa-267121806#1" lane="-267121806#1_0" roadsideCapacity="6" length="5"/>
    <parkingArea id="pa-267121809#0" lane="-267121809#0_0" roadsideCapacity="13" length="5"/>
    <parkingArea id="pa-267121809#1" lane="-267121809#1_0" roadsideCapacity="26" length="5"/>
    <parkingArea id="pa-26780529#10" lane="-26780529#10_0" roadsideCapacity="4" length="5"/>
    <parkingArea id="pa-26780529#11" lane="-26780529#11_0" roadsideCapacity="12" length="5"/>
    <parkingArea id="pa-26780529#3" lane="-26780529#3_0" roadsideCapacity="11" length="5"/>
    <parkingArea id="pa-26780529#4" lane="-26780529#4_0" roadsideCapacity="5" length="5"/>
    <parkingArea id="pa-26780529#5" lane="-26780529#5_0" roadsideCapacity="21" length="5"/>
    <parkingArea id="pa-26780529#6" lane="-26780529#6_0" roadsideCapacity="18" length="5"/>
    <parkingArea id="pa-26780529#7" lane="-26780529#7_0" roadsideCapacity="9" length="5"/>
    <parkingArea id="pa-26780529#8" lane="-26780529#8_0" roadsideCapacity="5" length="5"/>
    <parkingArea id="pa-26780532#0" lane="-26780532#0_0" roadsideCapacity="3" length="5"/>
    <parkingArea id="pa-26780532#1" lane="-26780532#1_0" roadsideCapacity="2" length="5"/>
    <parkingArea id="pa-26780532#2" lane="-26780532#2_0" roadsideCapacity="7" length="5"/>
    <parkingArea id="pa-26780532#3" lane="-26780532#3_0" roadsideCapacity="10" length="5"/>
    <parkingArea id="pa-26780532#6" lane="-26780532#6_0" roadsideCapacity="33" length="5"/>
    <parkingArea id="pa-277290447" lane="-277290447_0" roadsideCapacity="76" length="5"/>
    <parkingArea id="pa-277293524#0" lane="-277293524#0_0" roadsideCapacity="9" length="5"/>
    <parkingArea id="pa-277293524#1" lane="-277293524#1_0" roadsideCapacity="10" length="5"/>
    <parkingArea id="pa-277293524#2" lane="-277293524#2_0" roadsideCapacity="19" length="5"/>
    <parkingArea id="pa-277293531#0" lane="-277293531#0_0" roadsideCapacity="26" length="5"/>
    <parkingArea id="pa-277293531#1" lane="-277293531#1_0" roadsideCapacity="21" length="5"/>
    <parkingArea id="pa-277293534" lane="-277293534_0" roadsideCapacity="15" length="5"/>
    <parkingArea id="pa-28504807#10" lane="-28504807#10_0" roadsideCapacity="30" length="5"/>
    <parkingArea id="pa-28504807#11" lane="-28504807#11_0" roadsideCapacity="32" length="5"/>
    <parkingArea id="pa-28504807#2" lane="-28504807#2_0" roadsideCapacity="5" length="5"/>
    <parkingArea id="pa-28504807#3" lane="-28504807#3_0" roadsideCapacity="5" length="5"/>
    <parkingArea id="pa-28504807#4" lane="-28504807#4_0" roadsideCapacity="10" length="5"/>
    <parkingArea id="pa-28504807#5" lane="-28504807#5_0" roadsideCapacity="3" length="5"/>
    <parkingArea id="pa-28504807#6" lane="-28504807#6_0" roadsideCapacity="7" length="5"/>
    <parkingArea id="pa-28504807#8" lane="-28504807#8_0" roadsideCapacity="21" length="5"/>
    <parkingArea id="pa-28504816#0" lane="-28504816#0_0" roadsideCapacity="9" length="5"/>
    <parkingArea id="pa-28504816#1" lane="-28504816#1_0" roadsideCapacity="6" length="5"/>
    <parkingArea id="pa-28504816#2" lane="-28504816#2_0" roadsideCapacity="6" length="5"/>
    <parkingArea id="pa-28504819#2" lane="-28504819#2_0" roadsideCapacity="19" length="5"/>
    <parkingArea id="pa-287537139#0" lane="-287537139#0_0" roadsideCapacity="32" length="5"/>
    <parkingArea id="pa-287537139#1" lane="-287537139#1_0" roadsideCapacity="49" length="5"/>
    <parkingArea id="pa-288040810#0" lane="-288040810#0_0" roadsideCapacity="7" length="5"/>
    <parkingArea id="pa-288040810#1" lane="-288040810#1_0" roadsideCapacity="6" length="5"/>
    <parkingArea id="pa-296579358" lane="-296579358_0" roadsideCapacity="3" length="5"/>
    <parkingArea id="pa-296579359#1" lane="-296579359#1_0" roadsideCapacity="4" length="5"/>
    <parkingArea id="pa-296579360" lane="-296579360_0" roadsideCapacity="4" length="5"/>
    <parkingArea id="pa-296580396" lane="-296580396_0" roadsideCapacity="44" length="5"/>
    <parkingArea id="pa-296585974#1" lane="-296585974#1_0" roadsideCapacity="25" length="5"/>
    <parkingArea id="pa-296585975#1" lane="-296585975#1_0" roadsideCapacity="62" length="5"/>
    <parkingArea id="pa-296586012" lane="-296586012_0" roadsideCapacity="27" length="5"/>
    <parkingArea id="pa-296586084#3" lane="-296586084#3_0" roadsideCapacity="40" length="5"/>
    <parkingArea id="pa-296781798" lane="-296781798_0" roadsideCapacity="12" length="5"/>
    <parkingArea id="pa-310071480" lane="-310071480_0" roadsideCapacity="23" length="5"/>
    <parkingArea id="pa-337855372#0" lane="-337855372#0_0" roadsideCapacity="22" length="5"/>
    <parkingArea id="pa-337855372#1" lane="-337855372#1_0" roadsideCapacity="20" length="5"/>
    <parkingArea id="pa-337855372#2" lane="-337855372#2_0" roadsideCapacity="33" length="5"/>
    <parkingArea id="pa-337855373" lane="-337855373_0" roadsideCapacity="161" length="5"/>
    <parkingArea id="pa-337862267" lane="-337862267_0" roadsideCapacity="41" length="5"/>
    <parkingArea id="pa-34239670" lane="-34239670_0" roadsideCapacity="12" length="5"/>
    <parkingArea id="pa-34856758" lane="-34856758_0" roadsideCapacity="18" length="5"/>
    <parkingArea id="pa-348777604#0" lane="-348777604#0_0" roadsideCapacity="4" length="5"/>
    <parkingArea id="pa-348777604#1" lane="-348777604#1_0" roadsideCapacity="6" length="5"/>
    <parkingArea id="pa-348777604#2" lane="-348777604#2_0" roadsideCapacity="6" length="5"/>
    <parkingArea id="pa-348777606" lane="-348777606_0" roadsideCapacity="6" length="5"/>
    <parkingArea id="pa-35052939#0" lane="-35052939#0_0" roadsideCapacity="55" length="5"/>
    <parkingArea id="pa-35052939#1" lane="-35052939#1_0" roadsideCapacity="36" length="5"/>
    <parkingArea id="pa-35052939#2" lane="-35052939#2_0" roadsideCapacity="2" length="5"/>
    <parkingArea id="pa-35052939#3" lane="-35052939#3_0" roadsideCapacity="2" length="5"/>
    <parkingArea id="pa-35052939#4" lane="-35052939#4_0" roadsideCapacity="37" length="5"/>
    <parkingArea id="pa-35052939#6" lane="-35052939#6_0" roadsideCapacity="10" length="5"/>
    <parkingArea id="pa-35836491" lane="-35836491_0" roadsideCapacity="95" length="5"/>
    <parkingArea id="pa-364511942#1" lane="-364511942#1_0" roadsideCapacity="21" length="5"/>
    <parkingArea id="pa-37736752#0" lane="-37736752#0_0" roadsideCapacity="10" length="5"/>
    <parkingArea id="pa-37736752#1" lane="-37736752#1_0" roadsideCapacity="4" length="5"/>
    <parkingArea id="pa-37736752#2" lane="-37736752#2_0" roadsideCapacity="43" length="5"/>
    <parkingArea id="pa-377975299#0" lane="-377975299#0_0" roadsideCapacity="2" length="5"/>
    <parkingArea id="pa-377975299#3" lane="-377975299#3_0" roadsideCapacity="8" length="5"/>
    <parkingArea id="pa-377977593" lane="-377977593_0" roadsideCapacity="27" length="5"/>
    <parkingArea id="pa-385944359#0" lane="-385944359#0_0" roadsideCapacity="7" length="5"/>
    <parkingArea id="pa-385944359#1" lane="-385944359#1_0" roadsideCapacity="51" length="5"/>
    <parkingArea id="pa-385944360#0" lane="-385944360#0_0" roadsideCapacity="10" length="5"/>
    <parkingArea id="pa-385944360#1" lane="-385944360#1_0" roadsideCapacity="12" length="5"/>
    <parkingArea id="pa-385944361" lane="-385944361_0" roadsideCapacity="17" length="5"/>
    <parkingArea id="pa-387225369" lane="-387225369_0" roadsideCapacity="21" length="5"/>
    <parkingArea id="pa-389457111" lane="-389457111_0" roadsideCapacity="2" length="5"/>
    <parkingArea id="pa-389457327" lane="-389457327_0" roadsideCapacity="2" length="5"/>
    <parkingArea id="pa-389457331#0" lane="-389457331#0_0" roadsideCapacity="15" length="5"/>
    <parkingArea id="pa-389457331#1" lane="-389457331#1_0" roadsideCapacity="15" length="5"/>
    <parkingArea id="pa-39013694" lane="-39013694_0" roadsideCapacity="19" length="5"/>
    <parkingArea id="pa-39013697" lane="-39013697_0" roadsideCapacity="36" length="5"/>
    <parkingArea id="pa-39013698" lane="-39013698_0" roadsideCapacity="22" length="5"/>
    <parkingArea id="pa-39013702" lane="-39013702_0" roadsideCapacity="40" length="5"/>
    <parkingArea id="pa-39013703#0" lane="-39013703#0_0" roadsideCapacity="17" length="5"/>
    <parkingArea id="pa-39013703#1" lane="-39013703#1_0" roadsideCapacity="36" length="5"/>
    <parkingArea id="pa-39013704#0" lane="-39013704#0_0" roadsideCapacity="22" length="5"/>
    <parkingArea id="pa-39013704#3" lane="-39013704#3_0" roadsideCapacity="26" length="5"/>
    <parkingArea id="pa-39013728#0" lane="-39013728#0_0" roadsideCapacity="35" length="5"/>
    <parkingArea id="pa-39013728#2" lane="-39013728#2_0" roadsideCapacity="72" length="5"/>
    <parkingArea id="pa-39013733#0" lane="-39013733#0_0" roadsideCapacity="113" length="5"/>
    <parkingArea id="pa-39013733#1" lane="-39013733#1_0" roadsideCapacity="38" length="5"/>
    <parkingArea id="pa-39013878#0" lane="-39013878#0_0" roadsideCapacity="32" length="5"/>
    <parkingArea id="pa-39013878#1" lane="-39013878#1_0" roadsideCapacity="10" length="5"/>
    <parkingArea id="pa-39013879#0" lane="-39013879#0_0" roadsideCapacity="27" length="5"/>
    <parkingArea id="pa-39013879#3" lane="-39013879#3_0" roadsideCapacity="35" length="5"/>
    <parkingArea id="pa-39013879#4" lane="-39013879#4_0" roadsideCapacity="5" length="5"/>
    <parkingArea id="pa-39013879#5" lane="-39013879#5_0" roadsideCapacity="6" length="5"/>
    <parkingArea id="pa-39013880#0" lane="-39013880#0_0" roadsideCapacity="6" length="5"/>
    <parkingArea id="pa-39013880#1" lane="-39013880#1_0" roadsideCapacity="50" length="5"/>
    <parkingArea id="pa-39013880#2" lane="-39013880#2_0" roadsideCapacity="22" length="5"/>
    <parkingArea id="pa-39013882" lane="-39013882_0" roadsideCapacity="51" length="5"/>
    <parkingArea id="pa-39013883#0" lane="-39013883#0_0" roadsideCapacity="9" length="5"/>
    <parkingArea id="pa-39013883#2" lane="-39013883#2_0" roadsideCapacity="10" length="5"/>
    <parkingArea id="pa-39013883#3" lane="-39013883#3_0" roadsideCapacity="9" length="5"/>
    <parkingArea id="pa-39013883#4" lane="-39013883#4_0" roadsideCapacity="1" length="5"/>
    <parkingArea id="pa-39013883#6" lane="-39013883#6_0" roadsideCapacity="1" length="5"/>
    <parkingArea id="pa-39013883#7" lane="-39013883#7_0" roadsideCapacity="23" length="5"/>
    <parkingArea id="pa-39013884" lane="-39013884_0" roadsideCapacity="35" length="5"/>
    <parkingArea id="pa-39013885#1" lane="-39013885#1_0" roadsideCapacity="28" length="5"/>
    <parkingArea id="pa-39013885#2" lane="-39013885#2_0" roadsideCapacity="10" length="5"/>
    <parkingArea id="pa-39013885#3" lane="-39013885#3_0" roadsideCapacity="8" length="5"/>
    <parkingArea id="pa-39013885#4" lane="-39013885#4_0" roadsideCapacity="16" length="5"/>
    <parkingArea id="pa-39013886#0" lane="-39013886#0_0" roadsideCapacity="28" length="5"/>
    <parkingArea id="pa-39013886#1" lane="-39013886#1_0" roadsideCapacity="10" length="5"/>
    <parkingArea id="pa-39013886#2" lane="-39013886#2_0" roadsideCapacity="5" length="5"/>
    <parkingArea id="pa-39013887#1" lane="-39013887#1_0" roadsideCapacity="28" length="5"/>
    <parkingArea id="pa-39013887#2" lane="-39013887#2_0" roadsideCapacity="18" length="5"/>
    <parkingArea id="pa-39013887#3" lane="-39013887#3_0" roadsideCapacity="5" length="5"/>