<routes xmlns:xsi="http://www.w3.org/2001/XMLSchema-instance" xsi:noNamespaceSchemaLocation="http://sumo.dlr.de/xsd/routes_file.xsd">

<!-- BEGIN - LLM Generated trips -->

<!-- Vehicles -->
<vTypeDistribution id="agg">
	<vType id="v_agg0" minGap="0.16" accel="4.89" decel="3.31" startupDelay="0.28" sigma="0.89" tau="1.05" maxSpeed="117.51" speedFactor="1.79" lcStrategic="9.11" lcCooperative="0.1" lcSpeedGain="7.51" lcKeepRight="3.73" lcOvertakeRight="0.91" lcSpeedGainLookahead="3.57" lcOvertakeDeltaSpeedFactor="0.77" lcPushy="1.0" lcAssertive="4.87" lcImpatience="0.84" lcTimeToImpatience="8.85" lcLaneDiscipline="1.95" lcSigma="0.54" lcAccelLat="2.45" probability="0.7278654696954276">
		<param key="device.rerouting.probability" value="1.0"/>
		<param key="device.rerouting.adaptation-steps" value="18"/>
		<param key="device.rerouting.adaptation-interval" value="10"/>
	</vType>
	<vType id="v_agg1" minGap="0.14" accel="4.31" decel="3.23" startupDelay="0.54" sigma="0.82" tau="1.13" maxSpeed="116.17" speedFactor="1.88" lcStrategic="6.55" lcCooperative="0.06" lcSpeedGain="7.12" lcKeepRight="3.82" lcOvertakeRight="0.69" lcSpeedGainLookahead="3.99" lcOvertakeDeltaSpeedFactor="0.85" lcPushy="0.81" lcAssertive="4.18" lcImpatience="0.6" lcTimeToImpatience="6.44" lcLaneDiscipline="1.79" lcSigma="0.71" lcAccelLat="0.85" probability="0.029283558161339544">
		<param key="device.rerouting.probability" value="1.0"/>
		<param key="device.rerouting.adaptation-steps" value="18"/>
		<param key="device.rerouting.adaptation-interval" value="10"/>
	</vType>
	<vType id="v_agg2" minGap="0.31" accel="3.07" decel="3.86" startupDelay="0.33" sigma="0.77" tau="1.23" maxSpeed="110.46" speedFactor="1.63" lcStrategic="8.73" lcCooperative="0.12" lcSpeedGain="9.9" lcKeepRight="2.64" lcOvertakeRight="0.81" lcSpeedGainLookahead="3.3" lcOvertakeDeltaSpeedFactor="0.75" lcPushy="0.77" lcAssertive="3.8" lcImpatience="0.66" lcTimeToImpatience="9.26" lcLaneDiscipline="1.71" lcSigma="0.9" lcAccelLat="2.36" probability="0.18293389938958723">
		<param key="device.rerouting.probability" value="1.0"/>
		<param key="device.rerouting.adaptation-steps" value="18"/>
		<param key="device.rerouting.adaptation-interval" value="10"/>
	</vType>
	<vType id="v_agg3" minGap="0.28" accel="4.0" decel="4.16" startupDelay="0.1" sigma="0.65" tau="1.33" maxSpeed="119.58" speedFactor="1.78" lcStrategic="8.3" lcCooperative="0.09" lcSpeedGain="6.06" lcKeepRight="1.18" lcOvertakeRight="0.9" lcSpeedGainLookahead="3.01" lcOvertakeDeltaSpeedFactor="0.69" lcPushy="0.7" lcAssertive="2.27" lcImpatience="0.94" lcTimeToImpatience="10.01" lcLaneDiscipline="2.2" lcSigma="0.6" lcAccelLat="2.94" probability="0.05727814374853091">
		<param key="device.rerouting.probability" value="1.0"/>
		<param key="device.rerouting.adaptation-steps" value="18"/>
		<param key="device.rerouting.adaptation-interval" value="10"/>
	</vType>
	<vType id="v_agg4" minGap="0.11" accel="3.47" decel="4.2" startupDelay="0.3" sigma="0.49" tau="1.25" maxSpeed="109.21" speedFactor="1.62" lcStrategic="6.28" lcCooperative="0.08" lcSpeedGain="9.11" lcKeepRight="2.41" lcOvertakeRight="0.8" lcSpeedGainLookahead="3.26" lcOvertakeDeltaSpeedFactor="0.48" lcPushy="0.69" lcAssertive="3.95" lcImpatience="0.75" lcTimeToImpatience="6.29" lcLaneDiscipline="2.05" lcSigma="0.45" lcAccelLat="1.72" probability="0.0026389290051147688">
		<param key="device.rerouting.probability" value="1.0"/>
		<param key="device.rerouting.adaptation-steps" value="18"/>
		<param key="device.rerouting.adaptation-interval" value="10"/>
	</vType>
</vTypeDistribution>
<vTypeDistribution id="norm">
	<vType id="v_norm0" minGap="1.59" accel="1.57" decel="1.16" startupDelay="0.88" sigma="0.2" tau="1.8" maxSpeed="97.84" speedFactor="1.13" lcStrategic="1.52" lcCooperative="0.47" lcSpeedGain="1.59" lcKeepRight="0.87" lcOvertakeRight="0.18" lcSpeedGainLookahead="1.53" lcOvertakeDeltaSpeedFactor="-0.25" lcPushy="0.08" lcAssertive="1.09" lcImpatience="0.14" lcTimeToImpatience="14.82" lcLaneDiscipline="0.76" lcSigma="0.09" lcAccelLat="0.66" probability="0.1129552867448872">
		<param key="device.rerouting.probability" value="1.0"/>
		<param key="device.rerouting.adaptation-steps" value="18"/>
		<param key="device.rerouting.adaptation-interval" value="10"/>
	</vType>
	<vType id="v_norm1" minGap="1.3" accel="1.77" decel="1.75" startupDelay="0.58" sigma="0.22" tau="1.59" maxSpeed="80.53" speedFactor="1.1" lcStrategic="1.27" lcCooperative="0.54" lcSpeedGain="1.71" lcKeepRight="0.73" lcOvertakeRight="0.13" lcSpeedGainLookahead="1.6" lcOvertakeDeltaSpeedFactor="-0.34" lcPushy="0.04" lcAssertive="1.43" lcImpatience="0.1" lcTimeToImpatience="10.03" lcLaneDiscipline="0.33" lcSigma="0.1" lcAccelLat="0.67" probability="0.007837849705719272">
		<param key="device.rerouting.probability" value="1.0"/>
		<param key="device.rerouting.adaptation-steps" value="18"/>
		<param key="device.rerouting.adaptation-interval" value="10"/>
	</vType>
	<vType id="v_norm2" minGap="1.26" accel="1.26" decel="1.69" startupDelay="0.83" sigma="0.15" tau="1.6" maxSpeed="98.77" speedFactor="1.31" lcStrategic="1.45" lcCooperative="0.67" lcSpeedGain="2.05" lcKeepRight="0.65" lcOvertakeRight="0.09" lcSpeedGainLookahead="1.76" lcOvertakeDeltaSpeedFactor="-0.17" lcPushy="0.09" lcAssertive="1.16" lcImpatience="0.14" lcTimeToImpatience="14.12" lcLaneDiscipline="0.12" lcSigma="0.03" lcAccelLat="0.58" probability="0.02438580751913751">
		<param key="device.rerouting.probability" value="1.0"/>
		<param key="device.rerouting.adaptation-steps" value="18"/>
		<param key="device.rerouting.adaptation-interval" value="10"/>
	</vType>
	<vType id="v_norm3" minGap="1.66" accel="1.2" decel="2.03" startupDelay="0.8" sigma="0.14" tau="1.64" maxSpeed="95.69" speedFactor="1.36" lcStrategic="2.09" lcCooperative="0.59" lcSpeedGain="2.93" lcKeepRight="0.88" lcOvertakeRight="0.03" lcSpeedGainLookahead="2.03" lcOvertakeDeltaSpeedFactor="0.21" lcPushy="0.08" lcAssertive="1.22" lcImpatience="0.06" lcTimeToImpatience="14.62" lcLaneDiscipline="0.62" lcSigma="0.06" lcAccelLat="0.76" probability="0.49505496504802515">
		<param key="device.rerouting.probability" value="1.0"/>
		<param key="device.rerouting.adaptation-steps" value="18"/>
		<param key="device.rerouting.adaptation-interval" value="10"/>
	</vType>
	<vType id="v_norm4" minGap="1.39" accel="1.43" decel="1.46" startupDelay="0.68" sigma="0.17" tau="1.89" maxSpeed="94.07" speedFactor="1.14" lcStrategic="2.44" lcCooperative="0.56" lcSpeedGain="1.53" lcKeepRight="0.61" lcOvertakeRight="0.21" lcSpeedGainLookahead="1.35" lcOvertakeDeltaSpeedFactor="0.12" lcPushy="0.0" lcAssertive="1.42" lcImpatience="0.15" lcTimeToImpatience="12.57" lcLaneDiscipline="0.99" lcSigma="0.16" lcAccelLat="0.93" probability="0.35976609098223084">
		<param key="device.rerouting.probability" value="1.0"/>
		<param key="device.rerouting.adaptation-steps" value="18"/>
		<param key="device.rerouting.adaptation-interval" value="10"/>
	</vType>
</vTypeDistribution>

<!-- Trips -->
<trip id="veh1" type="agg" depart="0" from="-654338816" to="-654338816">
	<stop parkingArea="pa255802629#1" duration="10"/>
	<stop parkingArea="pa466703447#1" duration="40"/>
	<stop parkingArea="pa255802629#1" duration="10"/>
	<stop parkingArea="pa466703447#1" duration="40"/>
</trip>
<trip id="veh2" type="norm" depart="0" from="-654338816" to="-654338816">
	<stop parkingArea="pa255802629#1" duration="10"/>
	<stop parkingArea="pa-128609751#5" duration="40"/>
	<stop parkingArea="pa255802629#1" duration="10"/>
	<stop parkingArea="pa-128609751#5" duration="30"/>
	<stop parkingArea="pa255802629#1" duration="20"/>
</trip>


 <!-- END - LLM Generated trips -->

<!-- BEGIN - Random Trips -->


</routes>