<?xml version="1.0" encoding="UTF-8"?>

<!-- generated on 2024-12-04 15:21:20.994380 by osmWebWizard.py UNKNOWN
<configuration>
    <net-file value="/home/renan/Sumo/unb/osm.net.xml.gz"/>
    <output-trip-file value="/home/renan/Sumo/unb/osm.passenger.trips.xml"/>
    <route-file value="/home/renan/Sumo/unb/osm.passenger.rou.xml"/>
    <prefix value="veh"/>
    <trip-attributes value="departLane=&quot;best&quot;"/>
    <fringe-start-attributes value="departSpeed=&quot;max&quot;"/>
    <vehicle-class value="passenger"/>
    <lanes value="True"/>
    <fringe-factor value="5"/>
    <allow-fringe.min-length value="1000.0"/>
    <via-edge-types value="highway.motorway,highway.motorway_link,highway.trunk_link,highway.primary_link,highway.secondary_link,highway.tertiary_link"/>
    <min-distance value="300.0"/>
    <min-distance.fringe value="10.0"/>
    <remove-loops value="True"/>
    <validate value="True"/>
    <insertion-density value="12.0"/>
</configuration>
-->

<!-- generated on 2024-12-04 15:20:56 by Eclipse SUMO duarouter Version 1.21.0
<duarouterConfiguration xmlns:xsi="http://www.w3.org/2001/XMLSchema-instance" xsi:noNamespaceSchemaLocation="http://sumo.dlr.de/xsd/duarouterConfiguration.xsd">

    <input>
        <net-file value="/home/renan/Sumo/unb/osm.net.xml.gz"/>
        <route-files value="/home/renan/Sumo/unb/osm.passenger.trips.xml"/>
    </input>

    <output>
        <output-file value="/home/renan/Sumo/unb/osm.passenger.trips.xml.tmp"/>
        <alternatives-output value="NUL"/>
        <write-trips value="true"/>
    </output>

    <processing>
        <remove-loops value="true"/>
    </processing>

    <time>
        <begin value="0.0"/>
        <end value="3600.0"/>
    </time>

    <report>
        <no-warnings value="true"/>
        <ignore-errors value="true"/>
        <no-step-log value="true"/>
    </report>

</duarouterConfiguration>
-->

<routes xmlns:xsi="http://www.w3.org/2001/XMLSchema-instance" xsi:noNamespaceSchemaLocation="http://sumo.dlr.de/xsd/routes_file.xsd">
    <vType id="veh_passenger" vClass="passenger"/>
    <trip id="veh2" type="veh_passenger" depart="0.56" departLane="best" from="546458535" to="545569903"/>
    <trip id="veh4" type="veh_passenger" depart="1.12" departLane="best" from="-142490156" to="-124325777#0"/>
    <trip id="veh6" type="veh_passenger" depart="1.68" departLane="best" departSpeed="max" from="-100547763" to="100545386"/>
    <trip id="veh12" type="veh_passenger" depart="3.35" departLane="best" from="918834184" to="-142489898#5"/>
    <trip id="veh15" type="veh_passenger" depart="4.19" departLane="best" from="837960473" to="654352871"/>
    <trip id="veh16" type="veh_passenger" depart="4.47" departLane="best" from="264139138#2" to="95666031#2"/>
    <trip id="veh17" type="veh_passenger" depart="4.75" departLane="best" from="117900678" to="299392339"/>
    <trip id="veh18" type="veh_passenger" depart="5.03" departLane="best" from="916029014" to="41659049"/>
    <trip id="veh19" type="veh_passenger" depart="5.31" departLane="best" from="917508535#0" to="367113038#0"/>
    <trip id="veh20" type="veh_passenger" depart="5.59" departLane="best" departSpeed="max" from="445297314#0" to="142489506#1"/>
    <trip id="veh21" type="veh_passenger" depart="5.87" departLane="best" from="-61698066#4" to="117902037#2"/>
    <trip id="veh23" type="veh_passenger" depart="6.43" departLane="best" departSpeed="max" from="-142495596#2" to="117896262"/>
    <trip id="veh24" type="veh_passenger" depart="6.71" departLane="best" from="367113037#2" to="142497465#3"/>
    <trip id="veh27" type="veh_passenger" depart="7.55" departLane="best" from="39982978#0" to="41573435#1"/>
    <trip id="veh28" type="veh_passenger" depart="7.83" departLane="best" departSpeed="max" from="-364718338#1" to="654352861"/>
    <trip id="veh29" type="veh_passenger" depart="8.11" departLane="best" departSpeed="max" from="-306831867#1" to="14587435#8"/>
    <trip id="veh30" type="veh_passenger" depart="8.39" departLane="best" from="968251725#5" to="424987313"/>
    <trip id="veh31" type="veh_passenger" depart="8.66" departLane="best" from="265082070#0" to="546394084#6"/>
    <trip id="veh33" type="veh_passenger" depart="9.22" departLane="best" departSpeed="max" from="-654319275" to="-124492499#2"/>
    <trip id="veh34" type="veh_passenger" depart="9.50" departLane="best" departSpeed="max" from="-971930452#1" to="1155291406#1"/>
    <trip id="veh35" type="veh_passenger" depart="9.78" departLane="best" from="-43352383#1" to="918842545#0"/>
    <trip id="veh37" type="veh_passenger" depart="10.34" departLane="best" departSpeed="max" from="41573432#0" to="19783338"/>
    <trip id="veh38" type="veh_passenger" depart="10.62" departLane="best" from="918397125#1" to="262072478#0"/>
    <trip id="veh40" type="veh_passenger" depart="11.18" departLane="best" from="265082073#11" to="115434056#11"/>
    <trip id="veh41" type="veh_passenger" depart="11.46" departLane="best" from="278444738#6" to="918397128#5"/>
    <trip id="veh43" type="veh_passenger" depart="12.02" departLane="best" departSpeed="max" from="972234376" to="265082075#4"/>
    <trip id="veh44" type="veh_passenger" depart="12.30" departLane="best" departSpeed="max" from="-142488966#1" to="-142490160#0"/>
    <trip id="veh45" type="veh_passenger" depart="12.58" departLane="best" departSpeed="max" from="-142497210" to="41663376#2"/>
    <trip id="veh46" type="veh_passenger" depart="12.86" departLane="best" from="780105943" to="23597830#3"/>
    <trip id="veh47" type="veh_passenger" depart="13.14" departLane="best" from="-115434056#4" to="-160944277#0"/>
    <trip id="veh48" type="veh_passenger" depart="13.42" departLane="best" departSpeed="max" from="972222079#0" to="278444739#0"/>
    <trip id="veh51" type="veh_passenger" depart="14.25" departLane="best" from="424987307#3" to="285248740#0"/>
    <trip id="veh53" type="veh_passenger" depart="14.81" departLane="best" departSpeed="max" from="-142497222" to="249428745"/>
    <trip id="veh55" type="veh_passenger" depart="15.37" departLane="best" from="917592004#1" to="115434056#4"/>
    <trip id="veh56" type="veh_passenger" depart="15.65" departLane="best" from="261281081#1" to="-971601061"/>
    <trip id="veh57" type="veh_passenger" depart="15.93" departLane="best" departSpeed="max" from="918371170" to="917876141"/>
    <trip id="veh58" type="veh_passenger" depart="16.21" departLane="best" from="-95666031#0" to="424987309#9"/>
    <trip id="veh60" type="veh_passenger" depart="16.77" departLane="best" from="-654338827#0" to="285250593#4"/>
    <trip id="veh61" type="veh_passenger" depart="17.05" departLane="best" from="777906704#0" to="278444739#3"/>
    <trip id="veh64" type="veh_passenger" depart="17.89" departLane="best" from="917597805#2" to="916439126"/>
    <trip id="veh65" type="veh_passenger" depart="18.17" departLane="best" departSpeed="max" from="-96562835" to="-181818827"/>
    <trip id="veh66" type="veh_passenger" depart="18.45" departLane="best" from="917597804#2" to="918876823#6"/>
    <trip id="veh67" type="veh_passenger" depart="18.73" departLane="best" departSpeed="max" from="-142488912" to="264650984#1"/>
    <trip id="veh68" type="veh_passenger" depart="19.01" departLane="best" from="-120551964#3" to="780077834#1"/>
    <trip id="veh69" type="veh_passenger" depart="19.29" departLane="best" from="66349205#1" to="-508722980#3"/>
    <trip id="veh70" type="veh_passenger" depart="19.57" departLane="best" from="209999873#4" to="293588814"/>
    <trip id="veh73" type="veh_passenger" depart="20.40" departLane="best" from="264139141#14" to="-654352872#0"/>
    <trip id="veh74" type="veh_passenger" depart="20.68" departLane="best" from="-424987338" to="128480247#3"/>
    <trip id="veh75" type="veh_passenger" depart="20.96" departLane="best" from="972222076#12" to="429138186"/>
    <trip id="veh76" type="veh_passenger" depart="21.24" departLane="best" from="14593119#9" to="265285926#5"/>
    <trip id="veh78" type="veh_passenger" depart="21.80" departLane="best" departSpeed="max" from="100597437" to="383464776"/>
    <trip id="veh80" type="veh_passenger" depart="22.36" departLane="best" departSpeed="max" from="-124325788#1" to="41663395#0"/>
    <trip id="veh81" type="veh_passenger" depart="22.64" departLane="best" from="-654319274" to="918418696"/>
    <trip id="veh82" type="veh_passenger" depart="22.92" departLane="best" from="917484701#11" to="-245266395#3"/>
    <trip id="veh83" type="veh_passenger" depart="23.20" departLane="best" departSpeed="max" from="-654338837" to="508259280"/>
    <trip id="veh85" type="veh_passenger" depart="23.76" departLane="best" from="918452973" to="329050889#20"/>
    <trip id="veh86" type="veh_passenger" depart="24.04" departLane="best" from="209835621#1-AddedOffRampEdge" to="782087629"/>
    <trip id="veh88" type="veh_passenger" depart="24.60" departLane="best" departSpeed="max" from="-142495582" to="245266395#3"/>
    <trip id="veh89" type="veh_passenger" depart="24.88" departLane="best" from="142495588#1" to="263733266#3"/>
    <trip id="veh91" type="veh_passenger" depart="25.44" departLane="best" from="-95666033#2" to="-338165818#0"/>
    <trip id="veh92" type="veh_passenger" depart="25.71" departLane="best" from="125534810#11" to="142495447"/>
    <trip id="veh93" type="veh_passenger" depart="25.99" departLane="best" from="917508535#0" to="100652274"/>
    <trip id="veh94" type="veh_passenger" depart="26.27" departLane="best" departSpeed="max" from="-41573432#1" to="261322956#34"/>
    <trip id="veh95" type="veh_passenger" depart="26.55" departLane="best" from="-142490155" to="-117896296#3"/>
    <trip id="veh96" type="veh_passenger" depart="26.83" departLane="best" departSpeed="max" from="-701202503" to="918796219"/>
    <trip id="veh97" type="veh_passenger" depart="27.11" departLane="best" departSpeed="max" from="170757800" to="917597805#2"/>
    <trip id="veh98" type="veh_passenger" depart="27.39" departLane="best" from="265082060#4" to="142496521#3"/>
    <trip id="veh100" type="veh_passenger" depart="27.95" departLane="best" from="921027952" to="918800249"/>
    <trip id="veh103" type="veh_passenger" depart="28.79" departLane="best" from="124492535#5" to="-187688387#0"/>
    <trip id="veh104" type="veh_passenger" depart="29.07" departLane="best" from="117901336#0" to="966041592"/>
    <trip id="veh106" type="veh_passenger" depart="29.63" departLane="best" from="188697972" to="23597830#9"/>
    <trip id="veh107" type="veh_passenger" depart="29.91" departLane="best" from="918834185#0" to="972176385"/>
    <trip id="veh108" type="veh_passenger" depart="30.19" departLane="best" from="265082069#1" to="631328711"/>
    <trip id="veh109" type="veh_passenger" depart="30.47" departLane="best" from="-264960666#0" to="119758577#0"/>
    <trip id="veh111" type="veh_passenger" depart="31.03" departLane="best" from="264139141#8" to="777892305"/>
    <trip id="veh112" type="veh_passenger" depart="31.30" departLane="best" from="-100652272" to="380503208"/>
    <trip id="veh115" type="veh_passenger" depart="32.14" departLane="best" from="-140048197#0" to="-974969442"/>
    <trip id="veh116" type="veh_passenger" depart="32.42" departLane="best" from="28676313#18" to="539478837"/>
    <trip id="veh117" type="veh_passenger" depart="32.70" departLane="best" departSpeed="max" from="-654338824" to="-424987380#11"/>
    <trip id="veh118" type="veh_passenger" depart="32.98" departLane="best" from="917881147" to="100636673#4"/>
    <trip id="veh119" type="veh_passenger" depart="33.26" departLane="best" from="28676313#13" to="41659200#0"/>
    <trip id="veh121" type="veh_passenger" depart="33.82" departLane="best" from="264131724#1" to="918830394"/>
    <trip id="veh122" type="veh_passenger" depart="34.10" departLane="best" departSpeed="max" from="-424987360#1" to="-61698066#3"/>
    <trip id="veh123" type="veh_passenger" depart="34.38" departLane="best" departSpeed="max" from="-654348525#1" to="19783360#1"/>
    <trip id="veh124" type="veh_passenger" depart="34.66" departLane="best" from="41663356#2" to="124186559#15"/>
    <trip id="veh125" type="veh_passenger" depart="34.94" departLane="best" departSpeed="max" from="-971968805" to="777919706"/>
    <trip id="veh126" type="veh_passenger" depart="35.22" departLane="best" from="-124492535#0" to="262067977"/>
    <trip id="veh129" type="veh_passenger" depart="36.06" departLane="best" departSpeed="max" from="917605028" to="917990744#1"/>
    <trip id="veh131" type="veh_passenger" depart="36.62" departLane="best" from="916040554" to="549956111#11"/>
    <trip id="veh134" type="veh_passenger" depart="37.45" departLane="best" from="915916590" to="124186559#10"/>
    <trip id="veh135" type="veh_passenger" depart="37.73" departLane="best" from="160944285#4" to="918834185#3"/>
    <trip id="veh136" type="veh_passenger" depart="38.01" departLane="best" from="-207505200#1" to="-424987344"/>
    <trip id="veh137" type="veh_passenger" depart="38.29" departLane="best" departSpeed="max" from="-142496525" to="303693990#11"/>
    <trip id="veh140" type="veh_passenger" depart="39.13" departLane="best" from="-364718338#0" to="115434056#8"/>
    <trip id="veh143" type="veh_passenger" depart="39.97" departLane="best" from="142495588#1" to="117486354"/>
    <trip id="veh145" type="veh_passenger" depart="40.53" departLane="best" from="367113040" to="115434054#9"/>
    <trip id="veh146" type="veh_passenger" depart="40.81" departLane="best" from="548414467#1" to="295039987#0"/>
    <trip id="veh148" type="veh_passenger" depart="41.37" departLane="best" from="-125534810#10" to="918033027"/>
    <trip id="veh149" type="veh_passenger" depart="41.65" departLane="best" from="918042889#1" to="28676313#6"/>
    <trip id="veh151" type="veh_passenger" depart="42.21" departLane="best" from="-261266081#2" to="-507636428"/>
    <trip id="veh152" type="veh_passenger" depart="42.49" departLane="best" departSpeed="max" from="-96562838" to="263558821"/>
    <trip id="veh155" type="veh_passenger" depart="43.32" departLane="best" from="-701202502" to="-39447900#2"/>
    <trip id="veh156" type="veh_passenger" depart="43.60" departLane="best" from="777919709" to="918042886#0"/>
    <trip id="veh157" type="veh_passenger" depart="43.88" departLane="best" from="-128611622#1" to="41659211"/>
    <trip id="veh158" type="veh_passenger" depart="44.16" departLane="best" from="-264766233#0" to="918824056#0"/>
    <trip id="veh159" type="veh_passenger" depart="44.44" departLane="best" from="917545448#0" to="96562363#1"/>
    <trip id="veh160" type="veh_passenger" depart="44.72" departLane="best" from="-866506811#1" to="918000561#2"/>
    <trip id="veh164" type="veh_passenger" depart="45.84" departLane="best" from="-866506811#1" to="1155184706#1"/>
    <trip id="veh165" type="veh_passenger" depart="46.12" departLane="best" from="-780077827" to="41574474#0"/>
    <trip id="veh167" type="veh_passenger" depart="46.68" departLane="best" departSpeed="max" from="-550079451#1" to="916040550"/>
    <trip id="veh168" type="veh_passenger" depart="46.96" departLane="best" departSpeed="max" from="207500103#0" to="124363966#7"/>
    <trip id="veh170" type="veh_passenger" depart="47.52" departLane="best" departSpeed="max" from="-100546175" to="100545098"/>
    <trip id="veh172" type="veh_passenger" depart="48.08" departLane="best" from="920999175-AddedOffRampEdge" to="117896852#3"/>
    <trip id="veh175" type="veh_passenger" depart="48.91" departLane="best" from="918452985#2" to="424987341"/>
    <trip id="veh177" type="veh_passenger" depart="49.47" departLane="best" from="918873309" to="115467470#2-AddedOffRampEdge"/>
    <trip id="veh178" type="veh_passenger" depart="49.75" departLane="best" from="-142496531" to="249383347#1"/>
    <trip id="veh179" type="veh_passenger" depart="50.03" departLane="best" from="546408131" to="-128609751#7"/>
    <trip id="veh180" type="veh_passenger" depart="50.31" departLane="best" from="32898007#4" to="265082076#2"/>
    <trip id="veh181" type="veh_passenger" depart="50.59" departLane="best" from="118807714#2" to="364718338#1"/>
    <trip id="veh182" type="veh_passenger" depart="50.87" departLane="best" departSpeed="max" from="-777892304" to="550079450"/>
    <trip id="veh184" type="veh_passenger" depart="51.43" departLane="best" from="264139141#10" to="637902161"/>
    <trip id="veh185" type="veh_passenger" depart="51.71" departLane="best" from="549761667#1" to="508722981#0"/>
    <trip id="veh187" type="veh_passenger" depart="52.27" departLane="best" departSpeed="max" from="41648335" to="142488959"/>
    <trip id="veh188" type="veh_passenger" depart="52.55" departLane="best" departSpeed="max" from="-971926673" to="917509798#0"/>
    <trip id="veh189" type="veh_passenger" depart="52.83" departLane="best" from="546203947" to="124186559#18"/>
    <trip id="veh190" type="veh_passenger" depart="53.11" departLane="best" departSpeed="max" from="-96562850" to="209756381#10"/>
    <trip id="veh191" type="veh_passenger" depart="53.39" departLane="best" from="125534807#2" to="119756004#0"/>
    <trip id="veh192" type="veh_passenger" depart="53.67" departLane="best" from="-187684508#2" to="23597830#13"/>
    <trip id="veh193" type="veh_passenger" depart="53.94" departLane="best" from="918452988" to="546124783"/>
    <trip id="veh194" type="veh_passenger" depart="54.22" departLane="best" from="918042886#0" to="41574507#1"/>
    <trip id="veh195" type="veh_passenger" depart="54.50" departLane="best" departSpeed="max" from="-96562363#1" to="28676355#1"/>
    <trip id="veh197" type="veh_passenger" depart="55.06" departLane="best" from="14481620#1" to="368317294#5"/>
    <trip id="veh198" type="veh_passenger" depart="55.34" departLane="best" from="41573084#3" to="263639396#7"/>
    <trip id="veh202" type="veh_passenger" depart="56.46" departLane="best" departSpeed="max" from="-142488906#1" to="265285926#0"/>
    <trip id="veh203" type="veh_passenger" depart="56.74" departLane="best" from="338165816" to="142489504#1"/>
    <trip id="veh204" type="veh_passenger" depart="57.02" departLane="best" from="915944964" to="777919701"/>
    <trip id="veh206" type="veh_passenger" depart="57.58" departLane="best" from="-424987310#1" to="115434056#7"/>
    <trip id="veh207" type="veh_passenger" depart="57.86" departLane="best" departSpeed="max" from="-654359632" to="264139130"/>
    <trip id="veh209" type="veh_passenger" depart="58.42" departLane="best" from="142488538#0" to="41663389#1"/>
    <trip id="veh210" type="veh_passenger" depart="58.70" departLane="best" from="41659197" to="547501481"/>
    <trip id="veh211" type="veh_passenger" depart="58.98" departLane="best" from="-255804970#0" to="100609295"/>
    <trip id="veh213" type="veh_passenger" depart="59.54" departLane="best" departSpeed="max" from="-142496521#5" to="237173526#6"/>
    <trip id="veh215" type="veh_passenger" depart="60.09" departLane="best" from="263136697#0" to="142496516#1"/>
    <trip id="veh216" type="veh_passenger" depart="60.37" departLane="best" departSpeed="max" from="-701202501#1" to="917545447"/>
    <trip id="veh217" type="veh_passenger" depart="60.65" departLane="best" departSpeed="max" from="19783360#0" to="915944155"/>
    <trip id="veh218" type="veh_passenger" depart="60.93" departLane="best" from="41659217#0" to="967989642#4"/>
    <trip id="veh219" type="veh_passenger" depart="61.21" departLane="best" from="28676313#21" to="921010341"/>
    <trip id="veh220" type="veh_passenger" depart="61.49" departLane="best" from="501278217" to="41573817#2"/>
    <trip id="veh221" type="veh_passenger" depart="61.77" departLane="best" from="546201192" to="265082073#2"/>
    <trip id="veh222" type="veh_passenger" depart="62.05" departLane="best" from="916029016" to="28676355#1"/>
    <trip id="veh223" type="veh_passenger" depart="62.33" departLane="best" from="917990742#1" to="776667829#0"/>
    <trip id="veh224" type="veh_passenger" depart="62.61" departLane="best" from="209999873#1" to="115434052#2"/>
    <trip id="veh225" type="veh_passenger" depart="62.89" departLane="best" from="-666891118" to="424987309#13"/>
    <trip id="veh226" type="veh_passenger" depart="63.17" departLane="best" from="66349205#1" to="278402563"/>
    <trip id="veh227" type="veh_passenger" depart="63.45" departLane="best" from="32946720#1" to="1155293766#1"/>
    <trip id="veh228" type="veh_passenger" depart="63.73" departLane="best" departSpeed="max" from="-128611622#2" to="117900420#1"/>
    <trip id="veh230" type="veh_passenger" depart="64.29" departLane="best" from="264139141#2" to="-643144170"/>
    <trip id="veh231" type="veh_passenger" depart="64.57" departLane="best" departSpeed="max" from="-654332144" to="546458528"/>
    <trip id="veh232" type="veh_passenger" depart="64.85" departLane="best" from="45515579#4" to="-207505190#5"/>
    <trip id="veh235" type="veh_passenger" depart="65.68" departLane="best" from="142489503#4" to="918411900#1"/>
    <trip id="veh236" type="veh_passenger" depart="65.96" departLane="best" from="278444738#4" to="546458539#0"/>
    <trip id="veh237" type="veh_passenger" depart="66.24" departLane="best" from="916481977-AddedOffRampEdge" to="780109258#2"/>
    <trip id="veh239" type="veh_passenger" depart="66.80" departLane="best" from="115103945#3" to="779482475"/>
    <trip id="veh241" type="veh_passenger" depart="67.36" departLane="best" from="-142489226" to="777892304"/>
    <trip id="veh244" type="veh_passenger" depart="68.20" departLane="best" from="14587435#28" to="-124186553"/>
    <trip id="veh246" type="veh_passenger" depart="68.76" departLane="best" from="128480247#4" to="-866618253"/>
    <trip id="veh248" type="veh_passenger" depart="69.32" departLane="best" from="329042666#5" to="-117902603#0"/>
    <trip id="veh249" type="veh_passenger" depart="69.60" departLane="best" departSpeed="max" from="124325776" to="32899937#9"/>
    <trip id="veh251" type="veh_passenger" depart="70.16" departLane="best" from="-209756381#14" to="263562632"/>
    <trip id="veh253" type="veh_passenger" depart="70.72" departLane="best" from="-43352383#6" to="142488939#1"/>
    <trip id="veh254" type="veh_passenger" depart="70.99" departLane="best" from="-654319277#0" to="14587435#5"/>
    <trip id="veh258" type="veh_passenger" depart="72.11" departLane="best" departSpeed="max" from="976193673" to="142496128"/>
    <trip id="veh259" type="veh_passenger" depart="72.39" departLane="best" from="-404973450#6" to="780867608#1"/>
    <trip id="veh260" type="veh_passenger" depart="72.67" departLane="best" from="41571774#4" to="779491404"/>
    <trip id="veh263" type="veh_passenger" depart="73.51" departLane="best" from="170663521#3" to="508722977#0"/>
    <trip id="veh267" type="veh_passenger" depart="74.63" departLane="best" from="549956111#9" to="-424987318"/>
    <trip id="veh268" type="veh_passenger" depart="74.91" departLane="best" from="915962916" to="952495061"/>
    <trip id="veh269" type="veh_passenger" depart="75.19" departLane="best" departSpeed="max" from="-142496529" to="117898649"/>
    <trip id="veh270" type="veh_passenger" depart="75.47" departLane="best" departSpeed="max" from="-971601060" to="546124783"/>
    <trip id="veh271" type="veh_passenger" depart="75.75" departLane="best" from="918834185#4" to="207500088#4"/>
    <trip id="veh273" type="veh_passenger" depart="76.31" departLane="best" departSpeed="max" from="424987363" to="41663376#1"/>
    <trip id="veh276" type="veh_passenger" depart="77.14" departLane="best" departSpeed="max" from="-142497475" to="96562838"/>
    <trip id="veh277" type="veh_passenger" depart="77.42" departLane="best" from="779491410" to="142496115"/>
    <trip id="veh278" type="veh_passenger" depart="77.70" departLane="best" from="-142497311#0" to="142497540#1"/>
    <trip id="veh279" type="veh_passenger" depart="77.98" departLane="best" from="261322956#27" to="142495586#1"/>
    <trip id="veh280" type="veh_passenger" depart="78.26" departLane="best" from="916439128" to="916375245#5"/>
    <trip id="veh282" type="veh_passenger" depart="78.82" departLane="best" from="367113037#1" to="916409831"/>
    <trip id="veh284" type="veh_passenger" depart="79.38" departLane="best" from="546458512#0" to="95665997#2"/>
    <trip id="veh286" type="veh_passenger" depart="79.94" departLane="best" from="264139141#1" to="264139141#22"/>
    <trip id="veh287" type="veh_passenger" depart="80.22" departLane="best" from="14587435#26" to="654359619"/>
    <trip id="veh290" type="veh_passenger" depart="81.06" departLane="best" from="917606084" to="100607016"/>
    <trip id="veh291" type="veh_passenger" depart="81.34" departLane="best" from="207505193#1" to="41573803#0"/>
    <trip id="veh292" type="veh_passenger" depart="81.62" departLane="best" from="117901336#0" to="-1222622594"/>
    <trip id="veh294" type="veh_passenger" depart="82.18" departLane="best" from="-43352412#3" to="915084563#1"/>
    <trip id="veh295" type="veh_passenger" depart="82.45" departLane="best" departSpeed="max" from="100607018" to="917996199#1"/>
    <trip id="veh296" type="veh_passenger" depart="82.73" departLane="best" from="43352383#7" to="117486335#1"/>
    <trip id="veh298" type="veh_passenger" depart="83.29" departLane="best" departSpeed="max" from="-142488912" to="637909659"/>
    <trip id="veh300" type="veh_passenger" depart="83.85" departLane="best" from="249118666#0" to="866325727#0"/>
    <trip id="veh302" type="veh_passenger" depart="84.41" departLane="best" departSpeed="max" from="424987376" to="124484137#3"/>
    <trip id="veh303" type="veh_passenger" depart="84.69" departLane="best" from="278444738#1" to="264139124#4"/>
    <trip id="veh304" type="veh_passenger" depart="84.97" departLane="best" from="264139125#1" to="237173528#0"/>
    <trip id="veh305" type="veh_passenger" depart="85.25" departLane="best" from="549956111#11" to="142488961#1"/>
    <trip id="veh306" type="veh_passenger" depart="85.53" departLane="best" from="43383836#1" to="1155291422#3"/>
    <trip id="veh307" type="veh_passenger" depart="85.81" departLane="best" from="-704219481#5" to="-424987384#2"/>
    <trip id="veh308" type="veh_passenger" depart="86.09" departLane="best" departSpeed="max" from="-41573817#6" to="-424987376"/>
    <trip id="veh309" type="veh_passenger" depart="86.37" departLane="best" from="264139138#0" to="780086268#2"/>
    <trip id="veh311" type="veh_passenger" depart="86.93" departLane="best" from="237173523#0" to="654332150#1"/>
    <trip id="veh315" type="veh_passenger" depart="88.04" departLane="best" departSpeed="max" from="-383464781" to="-100597249"/>
    <trip id="veh316" type="veh_passenger" depart="88.32" departLane="best" from="264139134#2" to="1155292122#1"/>
    <trip id="veh317" type="veh_passenger" depart="88.60" departLane="best" from="921342700#1" to="303693990#13"/>
    <trip id="veh318" type="veh_passenger" depart="88.88" departLane="best" from="43351766" to="468492801"/>
    <trip id="veh319" type="veh_passenger" depart="89.16" departLane="best" from="917550930#0" to="265082056#8"/>
    <trip id="veh320" type="veh_passenger" depart="89.44" departLane="best" departSpeed="max" from="917588216" to="335429242#1"/>
    <trip id="veh321" type="veh_passenger" depart="89.72" departLane="best" from="209756382#0" to="259918092#1"/>
    <trip id="veh323" type="veh_passenger" depart="90.28" departLane="best" from="918458519" to="264139136#2"/>
    <trip id="veh325" type="veh_passenger" depart="90.84" departLane="best" from="-124494181#1" to="41663389#0"/>
    <trip id="veh326" type="veh_passenger" depart="91.12" departLane="best" departSpeed="max" from="-100597781" to="-701206848"/>
    <trip id="veh327" type="veh_passenger" depart="91.40" departLane="best" from="265082073#7" to="124363966#0"/>
    <trip id="veh328" type="veh_passenger" depart="91.68" departLane="best" departSpeed="max" from="972208341" to="-424987363"/>
    <trip id="veh329" type="veh_passenger" depart="91.96" departLane="best" from="654359638" to="41571774#9"/>
    <trip id="veh331" type="veh_passenger" depart="92.52" departLane="best" from="263639396#9" to="261322956#43"/>
    <trip id="veh332" type="veh_passenger" depart="92.80" departLane="best" from="170756789#2" to="917597803"/>
    <trip id="veh333" type="veh_passenger" depart="93.08" departLane="best" from="-971601056" to="124363966#8"/>
    <trip id="veh334" type="veh_passenger" depart="93.36" departLane="best" from="-329042663#2" to="41573438#1"/>
    <trip id="veh335" type="veh_passenger" depart="93.63" departLane="best" from="548414465#3" to="920976162"/>
    <trip id="veh340" type="veh_passenger" depart="95.03" departLane="best" from="28676313#1" to="118316532#19"/>
    <trip id="veh342" type="veh_passenger" depart="95.59" departLane="best" from="437748937" to="261553653#1"/>
    <trip id="veh343" type="veh_passenger" depart="95.87" departLane="best" from="424987347" to="918796227"/>
    <trip id="veh344" type="veh_passenger" depart="96.15" departLane="best" from="780077831#0" to="41659374#0"/>
    <trip id="veh345" type="veh_passenger" depart="96.43" departLane="best" from="41574507#0" to="918830391"/>
    <trip id="veh346" type="veh_passenger" depart="96.71" departLane="best" from="-142496118#0" to="28676313#24"/>
    <trip id="veh347" type="veh_passenger" depart="96.99" departLane="best" from="39982976#3" to="918439192#0"/>
    <trip id="veh350" type="veh_passenger" depart="97.83" departLane="best" from="549960049-AddedOffRampEdge" to="329042666#6"/>
    <trip id="veh351" type="veh_passenger" depart="98.11" departLane="best" from="-917884012#1" to="43352383#14"/>
    <trip id="veh352" type="veh_passenger" depart="98.39" departLane="best" departSpeed="max" from="424987354" to="549761667#1"/>
    <trip id="veh353" type="veh_passenger" depart="98.67" departLane="best" from="918796227" to="265082070#3"/>
    <trip id="veh354" type="veh_passenger" depart="98.95" departLane="best" from="-142489221" to="264960666#3"/>