<?xml version="1.0" encoding="UTF-8"?>

<!-- generated on 2024-12-04 15:21:44.003557 by generateParkingAreas.py UNKNOWN
<configuration>
    <net-file value="unb/osm.net.xml"/>
    <output-file value="unb/park.add.xml"/>
</configuration>
-->

<additional xmlns:xsi="http://www.w3.org/2001/XMLSchema-instance" xsi:noNamespaceSchemaLocation="http://sumo.dlr.de/xsd/additional_file.xsd">
    <parkingArea id="pa-100507110#0" lane="-100507110#0_0" roadsideCapacity="19" length="5"/>
    <parkingArea id="pa-100507110#1" lane="-100507110#1_0" roadsideCapacity="7" length="5"/>
    <parkingArea id="pa-100507110#10" lane="-100507110#10_0" roadsideCapacity="7" length="5"/>
    <parkingArea id="pa-100507110#11" lane="-100507110#11_0" roadsideCapacity="5" length="5"/>
    <parkingArea id="pa-100507110#2" lane="-100507110#2_0" roadsideCapacity="2" length="5"/>
    <parkingArea id="pa-100507110#3" lane="-100507110#3_0" roadsideCapacity="2" length="5"/>
    <parkingArea id="pa-100507110#4" lane="-100507110#4_0" roadsideCapacity="4" length="5"/>
    <parkingArea id="pa-100507110#5" lane="-100507110#5_0" roadsideCapacity="1" length="5"/>
    <parkingArea id="pa-100507110#7" lane="-100507110#7_0" roadsideCapacity="1" length="5"/>
    <parkingArea id="pa-100507110#8" lane="-100507110#8_0" roadsideCapacity="4" length="5"/>
    <parkingArea id="pa-100507110#9" lane="-100507110#9_0" roadsideCapacity="4" length="5"/>
    <parkingArea id="pa-100507115#0" lane="-100507115#0_0" roadsideCapacity="40" length="5"/>
    <parkingArea id="pa-100507115#1" lane="-100507115#1_0" roadsideCapacity="6" length="5"/>
    <parkingArea id="pa-100507135#0" lane="-100507135#0_0" roadsideCapacity="60" length="5"/>
    <parkingArea id="pa-100507135#1" lane="-100507135#1_0" roadsideCapacity="11" length="5"/>
    <parkingArea id="pa-100507135#2" lane="-100507135#2_0" roadsideCapacity="13" length="5"/>
    <parkingArea id="pa-100507135#3" lane="-100507135#3_0" roadsideCapacity="17" length="5"/>
    <parkingArea id="pa-100509968#0" lane="-100509968#0_0" roadsideCapacity="13" length="5"/>
    <parkingArea id="pa-100509968#1" lane="-100509968#1_0" roadsideCapacity="20" length="5"/>
    <parkingArea id="pa-100509968#2" lane="-100509968#2_0" roadsideCapacity="10" length="5"/>
    <parkingArea id="pa-100509968#3" lane="-100509968#3_0" roadsideCapacity="7" length="5"/>
    <parkingArea id="pa-100509968#4" lane="-100509968#4_0" roadsideCapacity="21" length="5"/>
    <parkingArea id="pa-100509968#5" lane="-100509968#5_0" roadsideCapacity="10" length="5"/>
    <parkingArea id="pa-100509984#0" lane="-100509984#0_0" roadsideCapacity="11" length="5"/>
    <parkingArea id="pa-100509984#1" lane="-100509984#1_0" roadsideCapacity="19" length="5"/>
    <parkingArea id="pa-100509984#2" lane="-100509984#2_0" roadsideCapacity="19" length="5"/>
    <parkingArea id="pa-100509984#3" lane="-100509984#3_0" roadsideCapacity="16" length="5"/>
    <parkingArea id="pa-100510005#0" lane="-100510005#0_0" roadsideCapacity="6" length="5"/>
    <parkingArea id="pa-100510005#1" lane="-100510005#1_0" roadsideCapacity="19" length="5"/>
    <parkingArea id="pa-100510005#2" lane="-100510005#2_0" roadsideCapacity="36" length="5"/>
    <parkingArea id="pa-100510008#0" lane="-100510008#0_0" roadsideCapacity="9" length="5"/>
    <parkingArea id="pa-100510008#2" lane="-100510008#2_0" roadsideCapacity="18" length="5"/>
    <parkingArea id="pa-100510008#3" lane="-100510008#3_0" roadsideCapacity="5" length="5"/>
    <parkingArea id="pa-100510008#4" lane="-100510008#4_0" roadsideCapacity="25" length="5"/>
    <parkingArea id="pa-100510008#5" lane="-100510008#5_0" roadsideCapacity="21" length="5"/>
    <parkingArea id="pa-100510012#0" lane="-100510012#0_0" roadsideCapacity="21" length="5"/>
    <parkingArea id="pa-100510012#1" lane="-100510012#1_0" roadsideCapacity="11" length="5"/>
    <parkingArea id="pa-100510012#10" lane="-100510012#10_0" roadsideCapacity="17" length="5"/>
    <parkingArea id="pa-100510012#11" lane="-100510012#11_0" roadsideCapacity="23" length="5"/>
    <parkingArea id="pa-100510012#12" lane="-100510012#12_0" roadsideCapacity="18" length="5"/>
    <parkingArea id="pa-100510012#13" lane="-100510012#13_0" roadsideCapacity="17" length="5"/>
    <parkingArea id="pa-100510012#15" lane="-100510012#15_0" roadsideCapacity="9" length="5"/>
    <parkingArea id="pa-100510012#16" lane="-100510012#16_0" roadsideCapacity="3" length="5"/>
    <parkingArea id="pa-100510012#17" lane="-100510012#17_0" roadsideCapacity="13" length="5"/>
    <parkingArea id="pa-100510012#18" lane="-100510012#18_0" roadsideCapacity="1" length="5"/>
    <parkingArea id="pa-100510012#19" lane="-100510012#19_0" roadsideCapacity="17" length="5"/>
    <parkingArea id="pa-100510012#2" lane="-100510012#2_0" roadsideCapacity="7" length="5"/>
    <parkingArea id="pa-100510012#20" lane="-100510012#20_0" roadsideCapacity="9" length="5"/>
    <parkingArea id="pa-100510012#3" lane="-100510012#3_0" roadsideCapacity="17" length="5"/>
    <parkingArea id="pa-100510012#4" lane="-100510012#4_0" roadsideCapacity="17" length="5"/>
    <parkingArea id="pa-100510012#5" lane="-100510012#5_0" roadsideCapacity="16" length="5"/>
    <parkingArea id="pa-100510012#6" lane="-100510012#6_0" roadsideCapacity="16" length="5"/>
    <parkingArea id="pa-100510012#7" lane="-100510012#7_0" roadsideCapacity="17" length="5"/>
    <parkingArea id="pa-100510012#8" lane="-100510012#8_0" roadsideCapacity="5" length="5"/>
    <parkingArea id="pa-100510012#9" lane="-100510012#9_0" roadsideCapacity="9" length="5"/>
    <parkingArea id="pa-100545087" lane="-100545087_0" roadsideCapacity="35" length="5"/>
    <parkingArea id="pa-100545088" lane="-100545088_0" roadsideCapacity="35" length="5"/>
    <parkingArea id="pa-100545089" lane="-100545089_0" roadsideCapacity="35" length="5"/>
    <parkingArea id="pa-100545090" lane="-100545090_0" roadsideCapacity="32" length="5"/>
    <parkingArea id="pa-100545091" lane="-100545091_0" roadsideCapacity="37" length="5"/>
    <parkingArea id="pa-100545092" lane="-100545092_0" roadsideCapacity="36" length="5"/>
    <parkingArea id="pa-100545093" lane="-100545093_0" roadsideCapacity="35" length="5"/>
    <parkingArea id="pa-100545094" lane="-100545094_0" roadsideCapacity="26" length="5"/>
    <parkingArea id="pa-100545095" lane="-100545095_0" roadsideCapacity="31" length="5"/>
    <parkingArea id="pa-100545096" lane="-100545096_0" roadsideCapacity="32" length="5"/>
    <parkingArea id="pa-100545098" lane="-100545098_0" roadsideCapacity="33" length="5"/>
    <parkingArea id="pa-100545099" lane="-100545099_0" roadsideCapacity="34" length="5"/>
    <parkingArea id="pa-100545100" lane="-100545100_0" roadsideCapacity="35" length="5"/>
    <parkingArea id="pa-100545101" lane="-100545101_0" roadsideCapacity="36" length="5"/>
    <parkingArea id="pa-100545103" lane="-100545103_0" roadsideCapacity="36" length="5"/>
    <parkingArea id="pa-100545104" lane="-100545104_0" roadsideCapacity="34" length="5"/>
    <parkingArea id="pa-100545105" lane="-100545105_0" roadsideCapacity="25" length="5"/>
    <parkingArea id="pa-100545106" lane="-100545106_0" roadsideCapacity="33" length="5"/>
    <parkingArea id="pa-100545107" lane="-100545107_0" roadsideCapacity="35" length="5"/>
    <parkingArea id="pa-100545109" lane="-100545109_0" roadsideCapacity="36" length="5"/>
    <parkingArea id="pa-100545110" lane="-100545110_0" roadsideCapacity="28" length="5"/>
    <parkingArea id="pa-100545111" lane="-100545111_0" roadsideCapacity="35" length="5"/>
    <parkingArea id="pa-100545112" lane="-100545112_0" roadsideCapacity="38" length="5"/>
    <parkingArea id="pa-100545372" lane="-100545372_0" roadsideCapacity="35" length="5"/>
    <parkingArea id="pa-100545373" lane="-100545373_0" roadsideCapacity="32" length="5"/>
    <parkingArea id="pa-100545374" lane="-100545374_0" roadsideCapacity="31" length="5"/>
    <parkingArea id="pa-100545376" lane="-100545376_0" roadsideCapacity="38" length="5"/>
    <parkingArea id="pa-100545377" lane="-100545377_0" roadsideCapacity="38" length="5"/>
    <parkingArea id="pa-100545378" lane="-100545378_0" roadsideCapacity="28" length="5"/>
    <parkingArea id="pa-100545379" lane="-100545379_0" roadsideCapacity="21" length="5"/>
    <parkingArea id="pa-100545381#0" lane="-100545381#0_0" roadsideCapacity="9" length="5"/>
    <parkingArea id="pa-100545381#1" lane="-100545381#1_0" roadsideCapacity="19" length="5"/>
    <parkingArea id="pa-100545381#2" lane="-100545381#2_0" roadsideCapacity="19" length="5"/>
    <parkingArea id="pa-100545381#3" lane="-100545381#3_0" roadsideCapacity="19" length="5"/>
    <parkingArea id="pa-100545382" lane="-100545382_0" roadsideCapacity="19" length="5"/>
    <parkingArea id="pa-100545384" lane="-100545384_0" roadsideCapacity="21" length="5"/>
    <parkingArea id="pa-100545385" lane="-100545385_0" roadsideCapacity="21" length="5"/>
    <parkingArea id="pa-100545386" lane="-100545386_0" roadsideCapacity="36" length="5"/>
    <parkingArea id="pa-100545387" lane="-100545387_0" roadsideCapacity="35" length="5"/>
    <parkingArea id="pa-100545388" lane="-100545388_0" roadsideCapacity="36" length="5"/>
    <parkingArea id="pa-100545390" lane="-100545390_0" roadsideCapacity="35" length="5"/>
    <parkingArea id="pa-100545391" lane="-100545391_0" roadsideCapacity="38" length="5"/>
    <parkingArea id="pa-100545392#0" lane="-100545392#0_0" roadsideCapacity="8" length="5"/>
    <parkingArea id="pa-100545392#1" lane="-100545392#1_0" roadsideCapacity="69" length="5"/>
    <parkingArea id="pa-100545393" lane="-100545393_0" roadsideCapacity="35" length="5"/>
    <parkingArea id="pa-100545546" lane="-100545546_0" roadsideCapacity="36" length="5"/>
    <parkingArea id="pa-100545547" lane="-100545547_0" roadsideCapacity="35" length="5"/>
    <parkingArea id="pa-100545548" lane="-100545548_0" roadsideCapacity="49" length="5"/>
    <parkingArea id="pa-100545549" lane="-100545549_0" roadsideCapacity="35" length="5"/>
    <parkingArea id="pa-100545550" lane="-100545550_0" roadsideCapacity="32" length="5"/>
    <parkingArea id="pa-100545551" lane="-100545551_0" roadsideCapacity="43" length="5"/>
    <parkingArea id="pa-100545552" lane="-100545552_0" roadsideCapacity="35" length="5"/>
    <parkingArea id="pa-100545553" lane="-100545553_0" roadsideCapacity="27" length="5"/>
    <parkingArea id="pa-100545554" lane="-100545554_0" roadsideCapacity="44" length="5"/>
    <parkingArea id="pa-100545555" lane="-100545555_0" roadsideCapacity="34" length="5"/>
    <parkingArea id="pa-100545556" lane="-100545556_0" roadsideCapacity="35" length="5"/>
    <parkingArea id="pa-100545557" lane="-100545557_0" roadsideCapacity="35" length="5"/>
    <parkingArea id="pa-100545558" lane="-100545558_0" roadsideCapacity="36" length="5"/>
    <parkingArea id="pa-100545559" lane="-100545559_0" roadsideCapacity="27" length="5"/>
    <parkingArea id="pa-100545560" lane="-100545560_0" roadsideCapacity="37" length="5"/>
    <parkingArea id="pa-100545561" lane="-100545561_0" roadsideCapacity="35" length="5"/>
    <parkingArea id="pa-100545562" lane="-100545562_0" roadsideCapacity="36" length="5"/>
    <parkingArea id="pa-100545563" lane="-100545563_0" roadsideCapacity="35" length="5"/>
    <parkingArea id="pa-100545564#0" lane="-100545564#0_0" roadsideCapacity="20" length="5"/>
    <parkingArea id="pa-100545564#1" lane="-100545564#1_0" roadsideCapacity="15" length="5"/>
    <parkingArea id="pa-100545564#2" lane="-100545564#2_0" roadsideCapacity="1" length="5"/>
    <parkingArea id="pa-100545564#3" lane="-100545564#3_0" roadsideCapacity="21" length="5"/>
    <parkingArea id="pa-100545565" lane="-100545565_0" roadsideCapacity="35" length="5"/>
    <parkingArea id="pa-100545566" lane="-100545566_0" roadsideCapacity="22" length="5"/>
    <parkingArea id="pa-100545567" lane="-100545567_0" roadsideCapacity="36" length="5"/>
    <parkingArea id="pa-100545568" lane="-100545568_0" roadsideCapacity="34" length="5"/>
    <parkingArea id="pa-100545569" lane="-100545569_0" roadsideCapacity="35" length="5"/>
    <parkingArea id="pa-100545947" lane="-100545947_0" roadsideCapacity="35" length="5"/>
    <parkingArea id="pa-100545948" lane="-100545948_0" roadsideCapacity="40" length="5"/>
    <parkingArea id="pa-100545952" lane="-100545952_0" roadsideCapacity="47" length="5"/>
    <parkingArea id="pa-100545954" lane="-100545954_0" roadsideCapacity="26" length="5"/>
    <parkingArea id="pa-100545955#0" lane="-100545955#0_0" roadsideCapacity="9" length="5"/>
    <parkingArea id="pa-100545955#1" lane="-100545955#1_0" roadsideCapacity="19" length="5"/>
    <parkingArea id="pa-100545956" lane="-100545956_0" roadsideCapacity="29" length="5"/>
    <parkingArea id="pa-100545957" lane="-100545957_0" roadsideCapacity="10" length="5"/>
    <parkingArea id="pa-100545958#0" lane="-100545958#0_0" roadsideCapacity="8" length="5"/>
    <parkingArea id="pa-100545958#1" lane="-100545958#1_0" roadsideCapacity="8" length="5"/>
    <parkingArea id="pa-100545960" lane="-100545960_0" roadsideCapacity="36" length="5"/>
    <parkingArea id="pa-100545961" lane="-100545961_0" roadsideCapacity="32" length="5"/>
    <parkingArea id="pa-100545962" lane="-100545962_0" roadsideCapacity="22" length="5"/>
    <parkingArea id="pa-100546171" lane="-100546171_0" roadsideCapacity="50" length="5"/>
    <parkingArea id="pa-100546172" lane="-100546172_0" roadsideCapacity="32" length="5"/>
    <parkingArea id="pa-100546173" lane="-100546173_0" roadsideCapacity="32" length="5"/>
    <parkingArea id="pa-100546174" lane="-100546174_0" roadsideCapacity="37" length="5"/>
    <parkingArea id="pa-100546175" lane="-100546175_0" roadsideCapacity="36" length="5"/>
    <parkingArea id="pa-100546176" lane="-100546176_0" roadsideCapacity="35" length="5"/>
    <parkingArea id="pa-100546177" lane="-100546177_0" roadsideCapacity="46" length="5"/>
    <parkingArea id="pa-100546178" lane="-100546178_0" roadsideCapacity="24" length="5"/>
    <parkingArea id="pa-100546179" lane="-100546179_0" roadsideCapacity="35" length="5"/>
    <parkingArea id="pa-100546180" lane="-100546180_0" roadsideCapacity="9" length="5"/>
    <parkingArea id="pa-100546181" lane="-100546181_0" roadsideCapacity="40" length="5"/>
    <parkingArea id="pa-100546182" lane="-100546182_0" roadsideCapacity="52" length="5"/>
    <parkingArea id="pa-100546183" lane="-100546183_0" roadsideCapacity="51" length="5"/>
    <parkingArea id="pa-100547748" lane="-100547748_0" roadsideCapacity="35" length="5"/>
    <parkingArea id="pa-100547751" lane="-100547751_0" roadsideCapacity="28" length="5"/>
    <parkingArea id="pa-100547755" lane="-100547755_0" roadsideCapacity="52" length="5"/>
    <parkingArea id="pa-100547761" lane="-100547761_0" roadsideCapacity="35" length="5"/>
    <parkingArea id="pa-100547763" lane="-100547763_0" roadsideCapacity="24" length="5"/>
    <parkingArea id="pa-100547766" lane="-100547766_0" roadsideCapacity="34" length="5"/>
    <parkingArea id="pa-100547767" lane="-100547767_0" roadsideCapacity="25" length="5"/>
    <parkingArea id="pa-100547772" lane="-100547772_0" roadsideCapacity="35" length="5"/>
    <parkingArea id="pa-100547773" lane="-100547773_0" roadsideCapacity="42" length="5"/>
    <parkingArea id="pa-100547775" lane="-100547775_0" roadsideCapacity="35" length="5"/>
    <parkingArea id="pa-100547782" lane="-100547782_0" roadsideCapacity="12" length="5"/>
    <parkingArea id="pa-100547784" lane="-100547784_0" roadsideCapacity="35" length="5"/>
    <parkingArea id="pa-100547785" lane="-100547785_0" roadsideCapacity="45" length="5"/>
    <parkingArea id="pa-100547787" lane="-100547787_0" roadsideCapacity="34" length="5"/>
    <parkingArea id="pa-100547790" lane="-100547790_0" roadsideCapacity="31" length="5"/>
    <parkingArea id="pa-100547792" lane="-100547792_0" roadsideCapacity="25" length="5"/>
    <parkingArea id="pa-100547794" lane="-100547794_0" roadsideCapacity="35" length="5"/>
    <parkingArea id="pa-100547797" lane="-100547797_0" roadsideCapacity="35" length="5"/>
    <parkingArea id="pa-100547800" lane="-100547800_0" roadsideCapacity="32" length="5"/>
    <parkingArea id="pa-100547801" lane="-100547801_0" roadsideCapacity="35" length="5"/>
    <parkingArea id="pa-100547802" lane="-100547802_0" roadsideCapacity="29" length="5"/>
    <parkingArea id="pa-100547803" lane="-100547803_0" roadsideCapacity="35" length="5"/>
    <parkingArea id="pa-100547804#0" lane="-100547804#0_0" roadsideCapacity="10" length="5"/>
    <parkingArea id="pa-100547804#1" lane="-100547804#1_0" roadsideCapacity="5" length="5"/>
    <parkingArea id="pa-100547804#2" lane="-100547804#2_0" roadsideCapacity="11" length="5"/>
    <parkingArea id="pa-100547804#3" lane="-100547804#3_0" roadsideCapacity="5" length="5"/>
    <parkingArea id="pa-100547804#4" lane="-100547804#4_0" roadsideCapacity="11" length="5"/>
    <parkingArea id="pa-100547804#5" lane="-100547804#5_0" roadsideCapacity="6" length="5"/>
    <parkingArea id="pa-100547805" lane="-100547805_0" roadsideCapacity="35" length="5"/>
    <parkingArea id="pa-100547807" lane="-100547807_0" roadsideCapacity="28" length="5"/>
    <parkingArea id="pa-100547808" lane="-100547808_0" roadsideCapacity="41" length="5"/>
    <parkingArea id="pa-100547809" lane="-100547809_0" roadsideCapacity="35" length="5"/>
    <parkingArea id="pa-100547976#0" lane="-100547976#0_0" roadsideCapacity="8" length="5"/>
    <parkingArea id="pa-100547976#1" lane="-100547976#1_0" roadsideCapacity="6" length="5"/>
    <parkingArea id="pa-100547976#2" lane="-100547976#2_0" roadsideCapacity="10" length="5"/>
    <parkingArea id="pa-100547976#3" lane="-100547976#3_0" roadsideCapacity="7" length="5"/>
    <parkingArea id="pa-100547977#0" lane="-100547977#0_0" roadsideCapacity="9" length="5"/>
    <parkingArea id="pa-100547977#1" lane="-100547977#1_0" roadsideCapacity="2" length="5"/>
    <parkingArea id="pa-100547977#2" lane="-100547977#2_0" roadsideCapacity="14" length="5"/>
    <parkingArea id="pa-100547977#3" lane="-100547977#3_0" roadsideCapacity="2" length="5"/>
    <parkingArea id="pa-100547978#0" lane="-100547978#0_0" roadsideCapacity="9" length="5"/>
    <parkingArea id="pa-100547978#1" lane="-100547978#1_0" roadsideCapacity="19" length="5"/>
    <parkingArea id="pa-100547978#2" lane="-100547978#2_0" roadsideCapacity="9" length="5"/>
    <parkingArea id="pa-100547980" lane="-100547980_0" roadsideCapacity="8" length="5"/>
    <parkingArea id="pa-100547981#0" lane="-100547981#0_0" roadsideCapacity="13" length="5"/>
    <parkingArea id="pa-100547981#1" lane="-100547981#1_0" roadsideCapacity="19" length="5"/>
    <parkingArea id="pa-100547981#2" lane="-100547981#2_0" roadsideCapacity="27" length="5"/>
    <parkingArea id="pa-100547981#3" lane="-100547981#3_0" roadsideCapacity="51" length="5"/>
    <parkingArea id="pa-100547982#0" lane="-100547982#0_0" roadsideCapacity="8" length="5"/>
    <parkingArea id="pa-100547982#1" lane="-100547982#1_0" roadsideCapacity="19" length="5"/>
    <parkingArea id="pa-100547982#2" lane="-100547982#2_0" roadsideCapacity="19" length="5"/>
    <parkingArea id="pa-100547982#3" lane="-100547982#3_0" roadsideCapacity="8" length="5"/>
    <parkingArea id="pa-100597247" lane="-100597247_0" roadsideCapacity="35" length="5"/>
    <parkingArea id="pa-100597248" lane="-100597248_0" roadsideCapacity="32" length="5"/>
    <parkingArea id="pa-100597249" lane="-100597249_0" roadsideCapacity="22" length="5"/>
    <parkingArea id="pa-100597250" lane="-100597250_0" roadsideCapacity="35" length="5"/>
    <parkingArea id="pa-100597251" lane="-100597251_0" roadsideCapacity="36" length="5"/>
    <parkingArea id="pa-100597252" lane="-100597252_0" roadsideCapacity="35" length="5"/>
    <parkingArea id="pa-100597253" lane="-100597253_0" roadsideCapacity="35" length="5"/>
    <parkingArea id="pa-100597254" lane="-100597254_0" roadsideCapacity="31" length="5"/>
    <parkingArea id="pa-100597255" lane="-100597255_0" roadsideCapacity="23" length="5"/>
    <parkingArea id="pa-100597256#0" lane="-100597256#0_0" roadsideCapacity="11" length="5"/>
    <parkingArea id="pa-100597256#1" lane="-100597256#1_0" roadsideCapacity="20" length="5"/>
    <parkingArea id="pa-100597256#3" lane="-100597256#3_0" roadsideCapacity="17" length="5"/>
    <parkingArea id="pa-100597256#4" lane="-100597256#4_0" roadsideCapacity="17" length="5"/>
    <parkingArea id="pa-100597256#5" lane="-100597256#5_0" roadsideCapacity="17" length="5"/>
    <parkingArea id="pa-100597256#6" lane="-100597256#6_0" roadsideCapacity="16" length="5"/>
    <parkingArea id="pa-100597256#7" lane="-100597256#7_0" roadsideCapacity="18" length="5"/>
    <parkingArea id="pa-100597256#8" lane="-100597256#8_0" roadsideCapacity="17" length="5"/>
    <parkingArea id="pa-100597256#9" lane="-100597256#9_0" roadsideCapacity="15" length="5"/>
    <parkingArea id="pa-100597257" lane="-100597257_0" roadsideCapacity="35" length="5"/>
    <parkingArea id="pa-100597258" lane="-100597258_0" roadsideCapacity="35" length="5"/>
    <parkingArea id="pa-100597259" lane="-100597259_0" roadsideCapacity="35" length="5"/>
    <parkingArea id="pa-100597260" lane="-100597260_0" roadsideCapacity="34" length="5"/>
    <parkingArea id="pa-100597261" lane="-100597261_0" roadsideCapacity="9" length="5"/>
    <parkingArea id="pa-100597262" lane="-100597262_0" roadsideCapacity="31" length="5"/>
    <parkingArea id="pa-100597263" lane="-100597263_0" roadsideCapacity="32" length="5"/>
    <parkingArea id="pa-100597264" lane="-100597264_0" roadsideCapacity="31" length="5"/>
    <parkingArea id="pa-100597265" lane="-100597265_0" roadsideCapacity="38" length="5"/>
    <parkingArea id="pa-100597266" lane="-100597266_0" roadsideCapacity="35" length="5"/>
    <parkingArea id="pa-100597267" lane="-100597267_0" roadsideCapacity="36" length="5"/>
    <parkingArea id="pa-100597268" lane="-100597268_0" roadsideCapacity="35" length="5"/>
    <parkingArea id="pa-100597269" lane="-100597269_0" roadsideCapacity="35" length="5"/>
    <parkingArea id="pa-100597270#0" lane="-100597270#0_0" roadsideCapacity="9" length="5"/>
    <parkingArea id="pa-100597270#1" lane="-100597270#1_0" roadsideCapacity="18" length="5"/>
    <parkingArea id="pa-100597270#2" lane="-100597270#2_0" roadsideCapacity="19" length="5"/>
    <parkingArea id="pa-100597271" lane="-100597271_0" roadsideCapacity="37" length="5"/>
    <parkingArea id="pa-100597272" lane="-100597272_0" roadsideCapacity="36" length="5"/>
    <parkingArea id="pa-100597273" lane="-100597273_0" roadsideCapacity="36" length="5"/>
    <parkingArea id="pa-100597274" lane="-100597274_0" roadsideCapacity="26" length="5"/>
    <parkingArea id="pa-100597275" lane="-100597275_0" roadsideCapacity="33" length="5"/>
    <parkingArea id="pa-100597276" lane="-100597276_0" roadsideCapacity="32" length="5"/>
    <parkingArea id="pa-100597277" lane="-100597277_0" roadsideCapacity="37" length="5"/>
    <parkingArea id="pa-100597278" lane="-100597278_0" roadsideCapacity="36" length="5"/>
    <parkingArea id="pa-100597279" lane="-100597279_0" roadsideCapacity="32" length="5"/>
    <parkingArea id="pa-100597280" lane="-100597280_0" roadsideCapacity="22" length="5"/>
    <parkingArea id="pa-100597281" lane="-100597281_0" roadsideCapacity="35" length="5"/>
    <parkingArea id="pa-100597282" lane="-100597282_0" roadsideCapacity="36" length="5"/>
    <parkingArea id="pa-100597283" lane="-100597283_0" roadsideCapacity="36" length="5"/>
    <parkingArea id="pa-100597284" lane="-100597284_0" roadsideCapacity="34" length="5"/>
    <parkingArea id="pa-100597285" lane="-100597285_0" roadsideCapacity="32" length="5"/>
    <parkingArea id="pa-100597286" lane="-100597286_0" roadsideCapacity="35" length="5"/>
    <parkingArea id="pa-100597287" lane="-100597287_0" roadsideCapacity="35" length="5"/>
    <parkingArea id="pa-100597288" lane="-100597288_0" roadsideCapacity="25" length="5"/>
    <parkingArea id="pa-100597432" lane="-100597432_0" roadsideCapacity="36" length="5"/>
    <parkingArea id="pa-100597433" lane="-100597433_0" roadsideCapacity="35" length="5"/>
    <parkingArea id="pa-100597434" lane="-100597434_0" roadsideCapacity="36" length="5"/>
    <parkingArea id="pa-100597435" lane="-100597435_0" roadsideCapacity="36" length="5"/>
    <parkingArea id="pa-100597436" lane="-100597436_0" roadsideCapacity="34" length="5"/>
    <parkingArea id="pa-100597437" lane="-100597437_0" roadsideCapacity="8" length="5"/>
    <parkingArea id="pa-100597438" lane="-100597438_0" roadsideCapacity="35" length="5"/>
    <parkingArea id="pa-100597439" lane="-100597439_0" roadsideCapacity="18" length="5"/>
    <parkingArea id="pa-100597440" lane="-100597440_0" roadsideCapacity="38" length="5"/>
    <parkingArea id="pa-100597441" lane="-100597441_0" roadsideCapacity="38" length="5"/>
    <parkingArea id="pa-100597442" lane="-100597442_0" roadsideCapacity="24" length="5"/>
    <parkingArea id="pa-100597443" lane="-100597443_0" roadsideCapacity="36" length="5"/>
    <parkingArea id="pa-100597444" lane="-100597444_0" roadsideCapacity="9" length="5"/>
    <parkingArea id="pa-100597445" lane="-100597445_0" roadsideCapacity="32" length="5"/>
    <parkingArea id="pa-100597446" lane="-100597446_0" roadsideCapacity="36" length="5"/>
    <parkingArea id="pa-100597447" lane="-100597447_0" roadsideCapacity="36" length="5"/>
    <parkingArea id="pa-100597448" lane="-100597448_0" roadsideCapacity="36" length="5"/>
    <parkingArea id="pa-100597449" lane="-100597449_0" roadsideCapacity="32" length="5"/>
    <parkingArea id="pa-100597450" lane="-100597450_0" roadsideCapacity="36" length="5"/>
    <parkingArea id="pa-100597451" lane="-100597451_0" roadsideCapacity="35" length="5"/>
    <parkingArea id="pa-100597452" lane="-100597452_0" roadsideCapacity="34" length="5"/>
    <parkingArea id="pa-100597453" lane="-100597453_0" roadsideCapacity="32" length="5"/>
    <parkingArea id="pa-100597454" lane="-100597454_0" roadsideCapacity="36" length="5"/>
    <parkingArea id="pa-100597455" lane="-100597455_0" roadsideCapacity="33" length="5"/>
    <parkingArea id="pa-100597456" lane="-100597456_0" roadsideCapacity="34" length="5"/>
    <parkingArea id="pa-100597780" lane="-100597780_0" roadsideCapacity="35" length="5"/>
    <parkingArea id="pa-100597781" lane="-100597781_0" roadsideCapacity="36" length="5"/>
    <parkingArea id="pa-100597782" lane="-100597782_0" roadsideCapacity="36" length="5"/>
    <parkingArea id="pa-100597784" lane="-100597784_0" roadsideCapacity="36" length="5"/>
    <parkingArea id="pa-100597785" lane="-100597785_0" roadsideCapacity="36" length="5"/>
    <parkingArea id="pa-100597786" lane="-100597786_0" roadsideCapacity="35" length="5"/>
    <parkingArea id="pa-100597788#0" lane="-100597788#0_0" roadsideCapacity="11" length="5"/>
    <parkingArea id="pa-100597788#1" lane="-100597788#1_0" roadsideCapacity="8" length="5"/>
    <parkingArea id="pa-100597789" lane="-100597789_0" roadsideCapacity="36" length="5"/>
    <parkingArea id="pa-100597790" lane="-100597790_0" roadsideCapacity="29" length="5"/>
    <parkingArea id="pa-100597791" lane="-100597791_0" roadsideCapacity="36" length="5"/>
    <parkingArea id="pa-100597792" lane="-100597792_0" roadsideCapacity="35" length="5"/>
    <parkingArea id="pa-100597794" lane="-100597794_0" roadsideCapacity="36" length="5"/>
    <parkingArea id="pa-100597796" lane="-100597796_0" roadsideCapacity="35" length="5"/>
    <parkingArea id="pa-100597797" lane="-100597797_0" roadsideCapacity="35" length="5"/>
    <parkingArea id="pa-100652270#0" lane="-100652270#0_0" roadsideCapacity="6" length="5"/>
    <parkingArea id="pa-100652270#1" lane="-100652270#1_0" roadsideCapacity="9" length="5"/>
    <parkingArea id="pa-100652273" lane="-100652273_0" roadsideCapacity="9" length="5"/>
    <parkingArea id="pa-100652274" lane="-100652274_0" roadsideCapacity="3" length="5"/>
    <parkingArea id="pa-100652276" lane="-100652276_0" roadsideCapacity="20" length="5"/>
    <parkingArea id="pa-1018891628" lane="-1018891628_0" roadsideCapacity="5" length="5"/>
    <parkingArea id="pa-102288530" lane="-102288530_0" roadsideCapacity="17" length="5"/>
    <parkingArea id="pa-102288532" lane="-102288532_0" roadsideCapacity="5" length="5"/>
    <parkingArea id="pa-102288536" lane="-102288536_0" roadsideCapacity="8" length="5"/>
    <parkingArea id="pa-102288541" lane="-102288541_0" roadsideCapacity="4" length="5"/>
    <parkingArea id="pa-102288546#0" lane="-102288546#0_0" roadsideCapacity="14" length="5"/>
    <parkingArea id="pa-102288547#0" lane="-102288547#0_0" roadsideCapacity="9" length="5"/>
    <parkingArea id="pa-102288547#1" lane="-102288547#1_0" roadsideCapacity="18" length="5"/>
    <parkingArea id="pa-102288548#0" lane="-102288548#0_0" roadsideCapacity="8" length="5"/>
    <parkingArea id="pa-102288548#2" lane="-102288548#2_0" roadsideCapacity="2" length="5"/>
    <parkingArea id="pa-102288548#3" lane="-102288548#3_0" roadsideCapacity="9" length="5"/>
    <parkingArea id="pa-102288549#0" lane="-102288549#0_0" roadsideCapacity="18" length="5"/>
    <parkingArea id="pa-102288549#1" lane="-102288549#1_0" roadsideCapacity="9" length="5"/>
    <parkingArea id="pa-102288551#0" lane="-102288551#0_0" roadsideCapacity="13" length="5"/>
    <parkingArea id="pa-102288551#2" lane="-102288551#2_0" roadsideCapacity="2" length="5"/>
    <parkingArea id="pa-102288551#3" lane="-102288551#3_0" roadsideCapacity="2" length="5"/>
    <parkingArea id="pa-102288551#4" lane="-102288551#4_0" roadsideCapacity="4" length="5"/>
    <parkingArea id="pa-102288551#5" lane="-102288551#5_0" roadsideCapacity="2" length="5"/>
    <parkingArea id="pa-102288558" lane="-102288558_0" roadsideCapacity="42" length="5"/>
    <parkingArea id="pa-102288561" lane="-102288561_0" roadsideCapacity="20" length="5"/>
    <parkingArea id="pa-102288565" lane="-102288565_0" roadsideCapacity="9" length="5"/>
    <parkingArea id="pa-103590539#0" lane="-103590539#0_0" roadsideCapacity="1" length="5"/>