<?xml version="1.0" encoding="UTF-8"?>

<!-- generated on 2024-12-04 15:50:18.794026 by randomTrips.py UNKNOWN
<configuration>
    <net-file value="unb/osm.net.xml"/>
    <additional-files value="unb/park.add.xml"/>
    <output-trip-file value="unb/randtrips.trips.xml"/>
    <route-file value="unb/randtrips.rou.xml"/>
    <vehicle-class value="passenger"/>
    <validate value="True"/>
    <end value="10.0"/>
</configuration>
-->

<!-- generated on 2024-12-04 15:50:18 by Eclipse SUMO duarouter Version 1.21.0
<duarouterConfiguration xmlns:xsi="http://www.w3.org/2001/XMLSchema-instance" xsi:noNamespaceSchemaLocation="http://sumo.dlr.de/xsd/duarouterConfiguration.xsd">

    <input>
        <net-file value="unb/osm.net.xml"/>
        <additional-files value="unb/park.add.xml"/>
        <route-files value="unb/randtrips.trips.xml"/>
    </input>

    <output>
        <output-file value="unb/randtrips.trips.xml.tmp"/>
        <alternatives-output value="NUL"/>
        <write-trips value="true"/>
    </output>

    <time>
        <begin value="0"/>
        <end value="10.0"/>
    </time>

    <report>
        <no-warnings value="true"/>
        <ignore-errors value="true"/>
        <no-step-log value="true"/>
    </report>

</duarouterConfiguration>
-->

<routes xmlns:xsi="http://www.w3.org/2001/XMLSchema-instance" xsi:noNamespaceSchemaLocation="http://sumo.dlr.de/xsd/routes_file.xsd">
    <vType id="passenger" vClass="passenger"/>
    <trip id="1" type="passenger" depart="1.00" from="-916038114" to="-866496631#0"/>
    <trip id="2" type="passenger" depart="2.00" from="511821070#0" to="424987308#4"/>
    <trip id="4" type="passenger" depart="4.00" from="142495604#0" to="-117902603#0"/>
    <trip id="5" type="passenger" depart="5.00" from="-549956829#2" to="262059187"/>
    <trip id="7" type="passenger" depart="7.00" from="41571774#5" to="265082068#7"/>
    <trip id="8" type="passenger" depart="8.00" from="-559142444#2" to="32899778#0"/>
</routes>
