<?xml version="1.0" encoding="UTF-8"?>

<!-- generated on 2024-12-04 15:50:16.579650 by randomTrips.py UNKNOWN
<configuration>
    <net-file value="unb/osm.net.xml"/>
    <additional-files value="unb/park.add.xml"/>
    <output-trip-file value="unb/randtrips.trips.xml"/>
    <route-file value="unb/randtrips.rou.xml"/>
    <vehicle-class value="passenger"/>
    <validate value="True"/>
    <end value="10.0"/>
</configuration>
-->

<!-- generated on 2024-12-04 15:50:16 by Eclipse SUMO duarouter Version 1.21.0
<duarouterConfiguration xmlns:xsi="http://www.w3.org/2001/XMLSchema-instance" xsi:noNamespaceSchemaLocation="http://sumo.dlr.de/xsd/duarouterConfiguration.xsd">

    <input>
        <net-file value="unb/osm.net.xml"/>
        <additional-files value="unb/park.add.xml"/>
        <route-files value="unb/randtrips.trips.xml"/>
    </input>

    <output>
        <output-file value="unb/randtrips.rou.xml"/>
        <alternatives-output value="NUL"/>
    </output>

    <time>
        <begin value="0"/>
        <end value="10.0"/>
    </time>

    <report>
        <no-warnings value="true"/>
        <ignore-errors value="true"/>
        <no-step-log value="true"/>
    </report>

</duarouterConfiguration>
-->

<routes xmlns:xsi="http://www.w3.org/2001/XMLSchema-instance" xsi:noNamespaceSchemaLocation="http://sumo.dlr.de/xsd/routes_file.xsd">
    <vType id="passenger" vClass="passenger"/>
    <vehicle id="1" type="passenger" depart="1.00">
        <route edges="-916038114 -916038113 -916038112 916038112 916038113 916038114 916038115 916038116 916030103 916037666 916030102 916037667 916030104 916030105 916030106 -916030107 -916029004 -916035619 -239695355 -916035620 -916029005 -916029006 -916029007#1 -239623816#1 -239623816#0 207503238#2 207503238#3 207503234#0 207503234#1 207503234#2 866496631#0 -866496631#0"/>
    </vehicle>
    <vehicle id="2" type="passenger" depart="2.00">
        <route edges="511821070#0 511821070#1 511821070#2 917861034#0 917861034#1 917861033 917990738 917990737#0 917990737#2 278584825#0 278584825#1 915925481#0 915925481#1 160944284#0 160944284#1 142488525#0 142488525#1 -265082058#5 -265082058#4 -265082058#3 -265082058#2 -265082058#1 -265082058#0 -142488530#5 -142488530#4 -142488530#3 -142488530#2 -142488530#1 -142488530#0 142488528#0 142488528#1 -265082057#3 -265082057#2 -265082057#1 -265082057#0 -142488532#2 -142488532#1 -142488532#0 117486314#0 117486314#1 -265082056#9 -265082056#8 -265082056#7 -265082056#6 -265082056#5 -265082056#4 -265082056#3 -265082056#2 -265082056#1 -265082056#0 -142488905#10 -142488905#9 -142488905#8 -142488905#7 -142488905#6 -142488905#5 -142488905#4 -142488905#3 -142488905#2 -142488905#1 -142488905#0 117486338#0 117486338#1 -265082055#5 -265082055#4 -265082055#3 -265082055#2 -265082055#1 -265082055#0 -142488942#2 -142488942#1 -142488942#0 249383345#1 249383346#0 115104371 265082062#0 265082062#1 115098977#0 115098977#1 115098974#2 115098974#3 115098974#4 115103940#0 115434054#5 115434054#6 115434054#7 115434054#8 115434054#9 115434054#10 115434054#11 115434054#12 915962915 261904799#0-AddedOnRampEdge 261904799#0 915959103 1232379714 916040550 916040551 916040552#0 916040552#1 916040554 916040553 916040555 916040556 916040557 916040558 915954164 916040559 915954165 207503230 916040560 916040561 916040562 916038108 -424987308#6 -424987308#5 -424987308#4 424987308#4"/>
    </vehicle>
    <vehicle id="4" type="passenger" depart="4.00">
        <route edges="142495604#0 -142495604#0 -654359627 -41663388#0 780077830#0 780056945 780056943 41574471#5 780056942 41574472#0 41663386 263562631 263562643 780727812 780727811 263562626 142495761 329050889#13 329050889#14 329050889#15 329050889#16 329050889#17 329050889#18 329050889#19 329050889#20 293588836 293588836-AddedOffRampEdge 293588829 589527400-AddedOnRampEdge 589527400 837960474-AddedOnRampEdge 837960474 118426169#0 967989642#0 967989642#1-AddedOnRampEdge 967989642#1 967989642#1-AddedOffRampEdge 967989642#2 967989642#3-AddedOnRampEdge 967989642#3 967989642#4 1155291423#0 1155291423#1 1155291423#2 1155291423#3 1155291423#4 117900246#0 117900246#1 117900246#2 117900246#3 117900246#4 117900246#5 117900246#5-AddedOffRampEdge 117900246#6 117900246#7-AddedOnRampEdge 117900246#7 117900246#8-AddedOnRampEdge 117900246#8 1155291424 1155291416#0 1155291415#0 1155291415#1 1155291415#2 1155291415#4 1155291415#4-AddedOffRampEdge 1155291417 918824055 921027952 921027953 918824056#0 918824056#0-AddedOffRampEdge 918824056#1 918824053 918824051#0 918824051#1-AddedOnRampEdge 918824051#1 918824050 918824049-AddedOnRampEdge 918824049 918824048 117901336#0 117901336#1-AddedOnRampEdge 117901336#1 117901336#1-AddedOffRampEdge 117901336#2 918800249 918800250 918800247 140018289 918796227 918796225 918834383 -863899299#0 -117902603#0"/>
    </vehicle>
    <vehicle id="5" type="passenger" depart="5.00">
        <route edges="-549956829#2 -549956829#1 -549956829#0 -207500089#0 207500079#0 207500079#1 207500087#0 207500087#1 866496655 207500096#0 207500096#1 -207564853#2 -207564853#1 -207564853#0 -916030107 -916029004 -916035619 -239695355 -916035620 -916029005 -916029006 -916029007#1 -916029007#0 -916029008 -916029009#1 -916029010 -916029011 508722977#0 508722977#1 508722977#2 917588359#0 917588359#1 916029016 263639396#0 263639396#3 263639396#7 263639396#9 263639396#10 263639396#11 263639396#12 263639396#15 263639396#16 263639396#17 263639396#18 263639396#19 917990737#2 41663364#0 264910406#0 264910406#1 918362579 385702778 915944155 637902160#0 637902160#1 637902160#2 915944153 621646055 917484701#0 917484701#1 917484701#2 917484701#3 142489985 263562632 142489983 353080394 916405476 916409832#0 916409832#0-AddedOffRampEdge 916409832#1 916409831 916409830#0 916409830#1-AddedOnRampEdge 916409830#1 916409830#1-AddedOffRampEdge 916409830#2 916409829 249462968 262059187"/>
    </vehicle>
    <vehicle id="7" type="passenger" depart="7.00">
        <route edges="41571774#5 41571774#6 41571774#7 41571774#8 41571774#9 41571774#10 262059434#0 262059434#1 -781029069 -261266079 -124494181#2 -124494181#1 302982308 41573078#2 917484698 917484697 102288557 -102288541 41659200#0 41659200#1 292931161#1 292931161#2 292931161#3 302982307 -41659199 780974303 41574497#2 330543923 -117902258#1 781016594#0 781016594#1 43383836#0 43383836#1 118807714#0 118807714#1 118807714#2 118807714#3 118807714#4 118807714#5 261322956#15 261322956#16 261322956#17 261322956#18 124325782 265082068#2 265082068#3 265082068#4 265082068#5 265082068#6 265082068#7"/>
    </vehicle>
    <vehicle id="8" type="passenger" depart="8.00">
        <route edges="-559142444#2 -559142444#1 -368956799#9 -368956799#8 -368956799#7 -368956799#6 -368956799#5 -368956799#4 -368956799#3 -368956799#2 -368956799#1 -368956799#0 368956794 368956795#2 368956795#3 368956795#4 781002504 -100545392#1 -100545392#0 782769515 916019046 207791333#0 207791333#1 243361486 916467915#3 782736528 -782096125#5 -782096125#4 -782096125#3 -782096125#2 32899788#0 -32899778#2 -32899778#1 -32899778#0 32899778#0"/>
    </vehicle>
</routes>
