<?xml version="1.0" encoding="UTF-8"?>

<!-- generated on 2024-10-04 16:51:17 by Eclipse SUMO marouter Version 1.20.0
<configuration xmlns:xsi="http://www.w3.org/2001/XMLSchema-instance" xsi:noNamespaceSchemaLocation="http://sumo.dlr.de/xsd/marouterConfiguration.xsd">

    <input>
        <net-file value="../osm.net.xml"/>
        <additional-files value="../osm_stops.add.xml"/>
        <route-files value="../osm.passenger.trips.xml"/>
    </input>

    <output>
        <output-file value="teste.rou.xml"/>
    </output>

    <processing>
        <routing-algorithm value="dijkstra"/>
        <paths value="100"/>
        <paths.penalty value="40"/>
    </processing>

</configuration>
-->

<routes xmlns:xsi="http://www.w3.org/2001/XMLSchema-instance" xsi:noNamespaceSchemaLocation="http://sumo.dlr.de/xsd/routes_file.xsd">
    <vehicle id="veh0" depart="0.00" type="veh_passenger" fromTaz="70200194#1" toTaz="-147412866#0" departLane="free" departSpeed="max">
        <routeDistribution>
            <route cost="83.69" probability="1.00000000" edges="70200194#1 -70056694#1 -70056694#0 -664980454 77712876#4 539414316 70080980#2 70080980#3 70080980#4 70080980#5 70080980#6 70080979#4 70080979#5 70080979#6 70080979#7 77790788#0 77790788#1 77790788#2 77790788#3 77790788#4 -85631072#4 -85631072#3 -147412866#0"/>
        </routeDistribution>
    </vehicle>
    <vehicle id="veh1" depart="1.82" type="veh_passenger" fromTaz="-85701987#4" toTaz="-77948714#2" departLane="free" departSpeed="max">
        <routeDistribution>
            <route cost="61.20" probability="1.00000000" edges="-85701987#4 -85701987#3 -85701987#2 -85701987#1 -85701987#0 -691704911 -1075116935#0 -78684176#3 363237442#0 363237442#1 890032153 76845626#0 76845626#1 -77948714#2"/>
        </routeDistribution>
    </vehicle>
    <vehicle id="veh2" depart="3.65" type="veh_passenger" fromTaz="75416306#10" toTaz="72641085#2" departLane="free" departSpeed="max">
        <routeDistribution>
            <route cost="83.33" probability="0.65000000" edges="75416306#10 563505741#0 563505741#1 563505740#0 563505740#1 563505740#2 75413341#0 75413341#1 75413341#2 75413341#3 564511814 75413342 -72644721#7 -72644721#6 -72644721#5 -72644721#4 -72641085#3 -72641085#2 72641085#2"/>
            <route cost="83.33" probability="0.35000000" edges="75416306#10 563505741#0 563505741#1 563505740#0 563505740#1 563505740#2 75413341#0 75413341#1 75413341#2 75413341#3 564511814 75413342 -72644721#7 -72644721#6 -563505734#3 -563505734#2 75259400#2 75259400#3 72641085#2"/>
        </routeDistribution>
    </vehicle>
    <vehicle id="veh3" depart="5.47" type="veh_passenger" fromTaz="78684176#0" toTaz="-563505737#2" departLane="free" departSpeed="max">
        <routeDistribution>
            <route cost="106.66" probability="1.00000000" edges="78684176#0 -78684173 890032153 76845626#0 85701990#1 430268897 183876535#5 183876535#7 70200195#2 70200195#3 70200195#4 70200195#5 70200195#6 564511809#0 564511809#1 890586227#0 890586227#1 -147379108#4 70200198#0 70200198#2 -563505737#2"/>
        </routeDistribution>
    </vehicle>
    <vehicle id="veh4" depart="7.30" type="veh_passenger" fromTaz="237036477#6" toTaz="-147412875#1" departLane="free" departSpeed="max">
        <routeDistribution>
            <route cost="213.28" probability="1.00000000" edges="237036477#6 237036477#7 237036477#8 237036477#10 237036477#11 75679337#0 75679337#1 75679337#2 563505769#18 563505769#19 563505769#20 563505766#1 447326048#1 447326048#2 447326048#5 447326048#6 75679292#1 75679292#2 890559265#0 890559265#1 890559265#2 890559265#3 75679284#0 75679284#1 693637327#1 693637327#2 889999537#0 890556454 179051712#0 179051712#1 179051712#2 179051712#3 179051712#4 77712876#0 77712876#1 77712876#2 77712876#3 77712876#4 539414316 70080980#2 70080980#3 70080980#4 70080980#5 70080980#6 70080979#4 70080979#5 70080979#6 70080979#7 77790788#0 77790788#1 85631060#0 -85631065#6 -85631065#5 -85631065#4 -85631065#3 -85631065#2 -147412875#1"/>
        </routeDistribution>
    </vehicle>
    <vehicle id="veh5" depart="9.12" type="veh_passenger" fromTaz="-147419852#2" toTaz="-76845636#0" departLane="free" departSpeed="max">
        <routeDistribution>
            <route cost="105.11" probability="1.00000000" edges="-147419852#2 -147419852#1 -147419852#0 85701991 85701990#0 85701990#1 430268897 183876535#5 183876535#7 70200195#2 -77680543#4 -77680543#3 -77680543#2 -77680543#1 -77680543#0 419238469#0 419238469#1 -76845636#1 -76845636#0"/>
        </routeDistribution>
    </vehicle>
    <vehicle id="veh6" depart="10.95" type="veh_passenger" fromTaz="70200195#9" toTaz="563505769#6" departLane="free" departSpeed="max">
        <routeDistribution>
            <route cost="116.53" probability="1.00000000" edges="70200195#9 70200195#10 70200195#11 70200195#12 70200195#13 70200195#14 70200195#15 70200195#16 70200195#17 70200195#18 70200195#19 70200195#20 70200195#21 70200195#22 70200195#23 89478571#3 89478571#4 89478571#5 89478571#6 89478571#7 269853395#0 269853395#1 269853395#2 77670431#2 77670431#3 77670431#4 72508815#14 72508815#15 72508815#16 72508815#17 72508815#18 72508815#19 72508816#1 72508816#2 72508816#4 72508816#5 72508816#6 563505769#1 563505769#2 563505769#3 563505769#4 563505769#5 563505769#6"/>
        </routeDistribution>
    </vehicle>
    <vehicle id="veh7" depart="12.77" type="veh_passenger" fromTaz="FEEC" toTaz="IC" departLane="free" departSpeed="max">
        <routeDistribution>
            <route cost="70.22" probability="1.00000000" edges="FEEC 693637406#10 693637406#11 693637406#12 693637406#13 693637406#14 693637406#15 693637406#16 906065938 1013410331 535719980 75679256#0 75679256#1 75679256#2 75679256#3 75679256#4 75679256#5 75679256#6 75679256#7 75679256#8 75679256#9 75679256#10 906049246 IC"/>
        </routeDistribution>
    </vehicle>
    <vehicle id="veh8" depart="14.59" type="veh_passenger" fromTaz="77674945#7" toTaz="1075116935#0" departLane="free" departSpeed="max">
        <routeDistribution>
            <route cost="187.71" probability="1.00000000" edges="77674945#7 77674945#8 77674950#1 77674950#2 77674950#4 77674950#5 77674950#6 77674950#7 77674950#8 75413340#1 447326496#0 447326496#1 447326496#2 447326496#3 447326496#4 447326496#5 89478572#7 89478572#8 89478572#9 889999539 89478572#0 89478572#1 89478572#2 72644721#0 72644721#1 72644721#2 72644721#3 72644721#4 72644721#5 72644721#6 72644721#7 -75259402#2 -75259402#1 -75259402#0 -691836138#1 -691836138#0 70200195#6 564511809#0 564511809#1 70056689#16 70056689#17 70056689#18 70056689#19 890063336#2 890063336#3 890063336#4 890063336#5 85701995#1 85701995#2 85701997#2 78684178#3 1075116935#0"/>
        </routeDistribution>
    </vehicle>
    <vehicle id="veh9" depart="16.42" type="veh_passenger" fromTaz="77674942#3" toTaz="75259400#7" departLane="free" departSpeed="max">
        <routeDistribution>
            <route cost="35.40" probability="1.00000000" edges="77674942#3 72508573#10 72508573#11 72508573#12 72508573#13 693637397#0 693637397#1 89478572#9 889999539 89478572#0 89478572#1 -70080981#3 -70080981#2 -75259400#7 75259400#7"/>
        </routeDistribution>
    </vehicle>
    <vehicle id="veh10" depart="18.24" type="veh_passenger" fromTaz="1054468192#1" toTaz="-72644044#4" departLane="free" departSpeed="max">
        <routeDistribution>
            <route cost="254.85" probability="1.00000000" edges="1054468192#1 1054468192#2 1054468192#3 889993133#0 889993133#1 1203381725 -1046248579#2 -1046248579#1 -1046248579#0 535556338#0 535556338#1 535556338#2 535556337#2 535556337#3 535556337#4 329703620#0 329703620#1 329703620#2 329703620#3 329703620#4 329703620#5 329703620#7 1013410330 1013410329 72508573#0 72508573#1 72508573#2 72508573#3 72508573#4 72508573#5 72508573#6 72508573#10 72508573#11 72508573#12 72508573#13 693637397#0 693637397#1 89478572#9 889999539 89478572#0 89478572#1 -70080981#3 -70080981#2 -70080981#1 -75259405#7 -75259405#6 -75259405#5 -75259405#4 -75259405#3 -75259405#2 -75259405#1 -72644044#4"/>
        </routeDistribution>
    </vehicle>
    <vehicle id="veh11" depart="20.07" type="veh_passenger" fromTaz="539691353#8" toTaz="147379116#4" departLane="free" departSpeed="max">
        <routeDistribution>
            <route cost="119.49" probability="1.00000000" edges="539691353#8 70200195#2 70200195#3 70200195#4 70200195#5 691836138#0 691836138#1 75259402#0 75259402#1 75259402#2 -72644721#7 72644044#7 147419849#3 -75413333#1 -75413333#0 -72508821#5 -72508821#4 -72508821#3 -72508821#2 -72508821#1 -72508821#0 447326043 147379116#0 147379116#2 147379116#3 147379116#4"/>
        </routeDistribution>
    </vehicle>
    <vehicle id="veh12" depart="21.89" type="veh_passenger" fromTaz="563505740#1" toTaz="563505769#10" departLane="free" departSpeed="max">
        <routeDistribution>
            <route cost="113.74" probability="1.00000000" edges="563505740#1 563505740#2 75413341#0 75413341#1 75413341#2 75413341#3 564511814 75413342 -72644721#7 -72644721#6 -72644721#5 -72644721#4 -72644721#3 -72644721#2 -72644721#1 -72644721#0 89478572#3 89478572#4 89478572#5 89478572#6 89478572#7 75679299#0 75679299#1 693637403 693637406#1 693637406#2 693637406#3 FEEC 693637406#10 693637406#11 693637406#12 693637406#13 887737028 75679333#0 75679333#1 75679333#2 563505769#8 563505769#9 563505769#10"/>
        </routeDistribution>
    </vehicle>
    <vehicle id="veh13" depart="23.71" type="veh_passenger" fromTaz="77790788#1" toTaz="70056689#16" departLane="free" departSpeed="max">
        <routeDistribution>
            <route cost="161.65" probability="1.00000000" edges="77790788#1 85631060#0 85631060#1 -563505765#1 -147412853#5 -147412853#4 -147412853#3 69830501#6 70080979#10 70080979#11 70080979#12 70080979#1 70080979#2 77781343#0 77781343#1 77781343#2 77781343#3 77781343#4 689691698#7 70056694#0 70056694#1 70056694#2 70056694#3 70056694#4 -70200192#3 -70200192#2 -70200192#1 -70200198#2 -70200198#0 147379108#4 890586228 70056689#16"/>
        </routeDistribution>
    </vehicle>
    <vehicle id="veh14" depart="25.54" type="veh_passenger" fromTaz="77674945#2" toTaz="75416306#5" departLane="free" departSpeed="max">
        <routeDistribution>
            <route cost="75.10" probability="1.00000000" edges="77674945#2 77674945#3 77674945#4 -77674920#2 -77674920#1 -77674920#0 77674918#4 77674915#1 537023654 -889486571#1 77674942#0 77674942#1 77674942#2 77674942#3 72508573#10 72508573#11 72508573#12 72508573#13 693637397#0 693637397#1 89478572#9 889999539 89478572#0 89478572#1 89478572#2 72644721#0 -75413339#0 75416306#1 75416306#2 75416306#3 75416306#4 75416306#5"/>
        </routeDistribution>
    </vehicle>
    <vehicle id="veh15" depart="27.36" type="veh_passenger" fromTaz="563505751#2" toTaz="890681695#1" departLane="free" departSpeed="max">
        <routeDistribution>
            <route cost="226.00" probability="1.00000000" edges="563505751#2 147419826#2 147419826#4 147419826#5 -89430987#1 -89430987#0 -220996673 -69416763#1 -69416763#0 220996671 1075116935#0 911130020 856607131#2 970631000#3 890681695#0 890681695#1"/>
        </routeDistribution>
    </vehicle>
    <vehicle id="veh16" depart="29.19" type="veh_passenger" fromTaz="147412875#0" toTaz="627798939#3" departLane="free" departSpeed="max">
        <routeDistribution>
            <route cost="246.80" probability="1.00000000" edges="147412875#0 85631072#2 85631072#3 85631072#4 85631072#5 69830501#2 69830501#3 69830501#4 69830501#5 69830501#6 70080979#10 70080979#11 70080979#12 70080979#1 70080979#2 77781343#0 77781343#1 77781343#2 77781343#3 77781343#4 77712876#7 77712876#8 77712876#9 689691698#1 69012634#0 69012634#1 69012634#2 69012634#3 69012634#4 -69416764#1 -69416764#0 533682528#1 533682528#2 533682528#3 533682528#4 533682528#5 533682528#6 533682528#7 183876535#0 183876535#3 -85701998 627798939#3"/>
        </routeDistribution>
    </vehicle>
    <vehicle id="veh17" depart="31.01" type="veh_passenger" fromTaz="77874668#3" toTaz="69322779#6" departLane="free" departSpeed="max">
        <routeDistribution>
            <route cost="151.47" probability="1.00000000" edges="77874668#3 77874668#4 77881557#3 77881557#4 77881557#5 77881557#6 77881557#7 77881557#8 77881557#9 75413340#0 75413340#1 447326496#0 447326496#1 447326496#2 447326496#3 447326496#4 447326496#5 89478572#7 89478572#8 89478572#9 889999539 89478572#0 89478572#1 89478572#2 72644721#0 -75413339#0 75416306#1 75416306#2 75416306#3 75416306#4 75416306#5 75416306#6 75416306#7 75416306#8 75416306#10 563505741#0 563505741#1 -890747060#1 -890747060#0 -76845636#1 77676169#0 77676169#1 69322779#6"/>
        </routeDistribution>
    </vehicle>
    <vehicle id="veh18" depart="32.84" type="veh_passenger" fromTaz="-77783507" toTaz="-89430987#1" departLane="free" departSpeed="max">
        <routeDistribution>
            <route cost="168.77" probability="1.00000000" edges="-77783507 689691698#1 69012634#0 69012634#1 69012634#2 69012634#3 69012634#4 -69416764#1 -69416764#0 533682528#1 533682528#2 533682528#3 533682528#4 533682528#5 533682528#6 533682528#7 183876535#0 183876535#3 183876535#4 -430268897 -85701990#1 76845626#1 -77948714#2 -77948714#1 -77948714#0 147419826#5 -89430987#1"/>
        </routeDistribution>
    </vehicle>
    <vehicle id="veh19" depart="34.66" type="veh_passenger" fromTaz="-537232376" toTaz="-78684178#1" departLane="free" departSpeed="max">
        <routeDistribution>
            <route cost="191.99" probability="1.00000000" edges="-537232376 260761733#2 260761733#3 260761733#4 260761733#5 1013410331 535719980 1013410330 1013410329 72508573#0 72508573#1 72508573#2 72508573#3 72508573#4 72508573#5 72508573#6 72508573#10 72508573#11 72508573#12 72508573#13 693637397#0 693637397#1 89478572#9 889999539 89478572#0 89478572#1 89478572#2 72644721#0 72644721#1 72644721#2 72644721#3 72644721#4 72644721#5 72644721#6 72644721#7 -75259402#2 -75259402#1 -75259402#0 -691836138#1 -691836138#0 70200195#6 564511809#0 564511809#1 70056689#16 70056689#17 70056689#18 70056689#19 890063336#2 890063336#3 890063336#4 890063336#5 890063336#8 -533682528#7 78684178#0 78684178#1 -78684178#1"/>
        </routeDistribution>
    </vehicle>
    <vehicle id="veh20" depart="36.48" type="veh_passenger" fromTaz="-563505767#1" toTaz="889993132#1" departLane="free" departSpeed="max">
        <routeDistribution>
            <route cost="166.59" probability="1.00000000" edges="-563505767#1 -563505769#20 -563505769#19 -563505769#18 -563505769#16 -563505769#15 -563505769#13 75679335#4 75679335#5 237036477#21 237036477#22 237036477#23 237036477#24 1013410329 906065937 535719981 1013410331 329703619#0 329703619#2 329703619#3 535556337#6 535556337#7 535556339#0 535556339#1 535556339#2 535556339#3 535556339#4 1046248579#0 1046248579#1 1046248579#2 -1203381725 889993132#0 889993132#1"/>
        </routeDistribution>
    </vehicle>
    <vehicle id="veh21" depart="38.31" type="veh_passenger" fromTaz="70200192#9" toTaz="89478572#5" departLane="free" departSpeed="max">
        <routeDistribution>
            <route cost="69.63" probability="1.00000000" edges="70200192#9 -179051712#2 -179051712#1 -179051712#0 890556455#1 89478571#1 89478571#2 89478571#3 69321368#0 69321368#1 69321368#2 69321368#3 89478572#1 89478572#2 89478572#3 89478572#4 89478572#5"/>
        </routeDistribution>
    </vehicle>
    <vehicle id="veh22" depart="40.13" type="veh_passenger" fromTaz="-147412853#4" toTaz="-77680543#4" departLane="free" departSpeed="max">
        <routeDistribution>
            <route cost="134.82" probability="1.00000000" edges="-147412853#4 -147412853#3 69830501#6 70080979#10 70080979#11 70080979#12 70080979#1 70080979#2 77781343#0 77781343#1 77781343#2 77781343#3 77781343#4 689691698#7 70056694#0 70056694#1 70056694#2 70056694#3 70056694#4 -70200192#3 -70200192#2 -70200192#1 -70200198#2 -70200198#0 147379108#4 890586228 70056689#16 70056689#17 183658213#0 183658213#1 -77680543#4"/>
        </routeDistribution>
    </vehicle>
    <vehicle id="veh23" depart="41.96" type="veh_passenger" fromTaz="-856607131#6" toTaz="85703442#2" departLane="free" departSpeed="max">
        <routeDistribution>
            <route cost="125.93" probability="1.00000000" edges="-856607131#6 -970630999#2 -970630999#1 -970630999#0 856607131#4 -890681695#0 -970631000#3 -856607131#2 -911130020 1075116935#1 85701977 147419852#2 147419852#3 563505758 220996670#0 85703442#0 85703442#1 85703442#2"/>
        </routeDistribution>
    </vehicle>
    <vehicle id="veh24" depart="43.78" type="veh_passenger" fromTaz="70200195#5" toTaz="70056689#8" departLane="free" departSpeed="max">
        <routeDistribution>
            <route cost="46.95" probability="1.00000000" edges="70200195#5 70200195#6 564511809#0 564511809#1 890586227#0 890586227#1 -147379108#4 -147379108#3 -147379108#2 -147379108#1 -147379108#0 -563505737#0 70056689#8"/>
        </routeDistribution>
    </vehicle>
    <vehicle id="veh25" depart="45.60" type="veh_passenger" fromTaz="-72644044#5" toTaz="220996670#0" departLane="free" departSpeed="max">
        <routeDistribution>
            <route cost="105.60" probability="1.00000000" edges="-72644044#5 -72644044#4 -72644044#3 -72644044#2 70056689#12 70056689#13 70056689#14 70056689#16 70056689#17 70056689#18 70056689#19 890063336#2 890063336#3 890063336#4 890063336#5 85701995#1 85701995#2 85701995#3 69416763#0 69416763#1 147419852#0 147419852#1 147419852#2 147419852#3 563505758 220996670#0"/>
        </routeDistribution>
    </vehicle>
</routes>
