<?xml version="1.0" encoding="UTF-8"?>

<!-- generated on 2025-06-13 12:18:31 by Eclipse SUMO netconvert Version 1.23.1
<netconvertConfiguration xmlns:xsi="http://www.w3.org/2001/XMLSchema-instance" xsi:noNamespaceSchemaLocation="http://sumo.dlr.de/xsd/netconvertConfiguration.xsd">

    <input>
        <type-files value="${SUMO_HOME}/data/typemap/osmNetconvert.typ.xml"/>
        <osm-files value="osm_bbox.osm.xml.gz"/>
    </input>

    <output>
        <output-file value="osm.net.xml.gz"/>
        <output.street-names value="true"/>
        <output.original-names value="true"/>
    </output>

    <projection>
        <proj.utm value="true"/>
    </projection>

    <processing>
        <geometry.remove value="true"/>
        <roundabouts.guess value="true"/>
    </processing>

    <tls_building>
        <tls.discard-simple value="true"/>
        <tls.join value="true"/>
        <tls.guess-signals value="true"/>
        <tls.default-type value="actuated"/>
    </tls_building>

    <ramp_guessing>
        <ramps.guess value="true"/>
    </ramp_guessing>

    <junctions>
        <junctions.join value="true"/>
        <junctions.corner-detail value="5"/>
    </junctions>

</netconvertConfiguration>
-->

<net version="1.20" junctionCornerDetail="5" limitTurnSpeed="5.50" xmlns:xsi="http://www.w3.org/2001/XMLSchema-instance" xsi:noNamespaceSchemaLocation="http://sumo.dlr.de/xsd/net_file.xsd">

    <location netOffset="-286533.21,2526694.87" convBoundary="0.00,0.00,2906.20,3824.66" origBoundary="-47.079980,-22.834440,-47.051576,-22.800033" projParameter="+proj=utm +zone=23 +ellps=WGS84 +datum=WGS84 +units=m +no_defs"/>

    <type id="highway.cycleway" priority="1" numLanes="1" speed="5.56" allow="bicycle" oneway="0" width="2.00"/>
    <type id="highway.footway" priority="1" numLanes="1" speed="2.78" allow="pedestrian" oneway="1" width="2.00"/>
    <type id="highway.path" priority="1" numLanes="1" speed="5.56" allow="pedestrian bicycle" oneway="0" width="2.00"/>
    <type id="highway.residential" priority="3" numLanes="1" speed="13.89" disallow="tram rail_urban rail rail_electric rail_fast ship container cable_car subway aircraft wheelchair scooter drone" oneway="0"/>
    <type id="highway.secondary" priority="11" numLanes="1" speed="27.78" disallow="tram rail_urban rail rail_electric rail_fast ship container cable_car subway aircraft wheelchair scooter drone" oneway="0"/>
    <type id="highway.secondary_link" priority="6" numLanes="1" speed="22.22" disallow="tram rail_urban rail rail_electric rail_fast ship container cable_car subway aircraft wheelchair scooter drone" oneway="0"/>
    <type id="highway.service" priority="1" numLanes="1" speed="5.56" allow="pedestrian delivery bicycle" oneway="0"/>
    <type id="highway.steps" priority="1" numLanes="1" speed="1.39" allow="pedestrian" oneway="1" width="2.00"/>
    <type id="highway.tertiary" priority="10" numLanes="1" speed="22.22" disallow="tram rail_urban rail rail_electric rail_fast ship container cable_car subway aircraft wheelchair scooter drone" oneway="0"/>
    <type id="highway.tertiary_link" priority="5" numLanes="1" speed="22.22" disallow="tram rail_urban rail rail_electric rail_fast ship container cable_car subway aircraft wheelchair scooter drone" oneway="0"/>
    <type id="highway.track" priority="1" numLanes="1" speed="5.56" allow="pedestrian motorcycle moped bicycle" oneway="0"/>
    <type id="highway.unclassified" priority="4" numLanes="1" speed="13.89" disallow="tram rail_urban rail rail_electric rail_fast ship container cable_car subway aircraft wheelchair scooter drone" oneway="0"/>

    <edge id=":10123108628_0" function="internal">
        <lane id=":10123108628_0_0" index="0" disallow="tram rail_urban rail rail_electric rail_fast ship container cable_car subway aircraft wheelchair scooter drone" speed="13.89" length="5.03" shape="846.19,2100.87 842.72,2104.50"/>
    </edge>
    <edge id=":10123108632_0" function="internal">
        <lane id=":10123108632_0_0" index="0" disallow="tram rail_urban rail rail_electric rail_fast ship container cable_car subway aircraft wheelchair scooter drone" speed="27.78" length="4.95" shape="1220.66,1163.34 1223.98,1159.67"/>
    </edge>
    <edge id=":10123108633_0" function="internal">
        <lane id=":10123108633_0_0" index="0" disallow="tram rail_urban rail rail_electric rail_fast ship container cable_car subway aircraft wheelchair scooter drone" speed="27.78" length="5.00" shape="1235.36,1169.77 1232.02,1173.50"/>
        <lane id=":10123108633_0_1" index="1" disallow="tram rail_urban rail rail_electric rail_fast ship container cable_car subway aircraft wheelchair scooter drone" speed="27.78" length="5.00" shape="1232.97,1167.64 1229.64,1171.36"/>
    </edge>
    <edge id=":10123108645_0" function="internal">
        <lane id=":10123108645_0_0" index="0" disallow="tram rail_urban rail rail_electric rail_fast ship container cable_car subway aircraft wheelchair scooter drone" speed="22.22" length="5.00" shape="1705.35,1163.96 1709.91,1166.00"/>
    </edge>
    <edge id=":10123108646_0" function="internal">
        <lane id=":10123108646_0_0" index="0" disallow="tram rail_urban rail rail_electric rail_fast ship container cable_car subway aircraft wheelchair scooter drone" speed="22.22" length="5.00" shape="1703.34,1180.19 1698.85,1177.99"/>
    </edge>
    <edge id=":10123108666_0" function="internal">
        <lane id=":10123108666_0_0" index="0" disallow="tram rail_urban rail rail_electric rail_fast ship container cable_car subway aircraft wheelchair scooter drone" speed="13.89" length="5.00" shape="1600.10,1204.87 1597.34,1209.04"/>
    </edge>
    <edge id=":10123108667_0" function="internal">
        <lane id=":10123108667_0_0" index="0" disallow="tram rail_urban rail rail_electric rail_fast ship container cable_car subway aircraft wheelchair scooter drone" speed="13.89" length="5.00" shape="1584.20,1200.78 1586.91,1196.58"/>
    </edge>
    <edge id=":10123108677_0" function="internal">
        <lane id=":10123108677_0_0" index="0" disallow="tram rail_urban rail rail_electric rail_fast ship container cable_car subway aircraft wheelchair scooter drone" speed="13.89" length="5.00" shape="1418.67,1340.14 1421.38,1335.94"/>
    </edge>
    <edge id=":10123108678_0" function="internal">
        <lane id=":10123108678_0_0" index="0" disallow="tram rail_urban rail rail_electric rail_fast ship container cable_car subway aircraft wheelchair scooter drone" speed="13.89" length="5.00" shape="1432.12,1342.41 1429.42,1346.62"/>
    </edge>
    <edge id=":10123108699_0" function="internal">
        <lane id=":10123108699_0_0" index="0" disallow="tram rail_urban rail rail_electric rail_fast ship container cable_car subway aircraft wheelchair scooter drone" speed="13.89" length="5.12" shape="1391.02,2087.08 1386.29,2085.12"/>
    </edge>
    <edge id=":10123108702_0" function="internal">
        <lane id=":10123108702_0_0" index="0" disallow="tram rail_urban rail rail_electric rail_fast ship container cable_car subway aircraft wheelchair scooter drone" speed="22.22" length="5.28" shape="1383.77,2071.27 1381.83,2076.18"/>
    </edge>
    <edge id=":10123108702_1" function="internal">
        <lane id=":10123108702_1_0" index="0" disallow="tram rail_urban rail rail_electric rail_fast ship container cable_car subway aircraft wheelchair scooter drone" speed="22.22" length="5.28" shape="1378.85,2075.00 1380.79,2070.10"/>
    </edge>
    <edge id=":10123108712_0" function="internal">
        <lane id=":10123108712_0_0" index="0" disallow="tram rail_urban rail rail_electric rail_fast ship container cable_car subway aircraft wheelchair scooter drone" speed="27.78" length="5.00" shape="765.80,1711.69 768.13,1707.27"/>
        <lane id=":10123108712_0_1" index="1" disallow="tram rail_urban rail rail_electric rail_fast ship container cable_car subway aircraft wheelchair scooter drone" speed="27.78" length="5.00" shape="768.63,1713.19 770.96,1708.77"/>
    </edge>
    <edge id=":10123108713_0" function="internal">
        <lane id=":10123108713_0_0" index="0" disallow="tram rail_urban rail rail_electric rail_fast ship container cable_car subway aircraft wheelchair scooter drone" speed="27.78" length="4.69" shape="782.48,1714.54 780.38,1718.73"/>
        <lane id=":10123108713_0_1" index="1" disallow="tram rail_urban rail rail_electric rail_fast ship container cable_car subway aircraft wheelchair scooter drone" speed="27.78" length="4.69" shape="779.62,1713.10 777.52,1717.29"/>
    </edge>
    <edge id=":10123108714_0" function="internal">
        <lane id=":10123108714_0_0" index="0" disallow="tram rail_urban rail rail_electric rail_fast ship container cable_car subway aircraft wheelchair scooter drone" speed="16.67" length="5.00" shape="992.14,1424.11 988.78,1427.81"/>
    </edge>
    <edge id=":10123108714_1" function="internal">
        <lane id=":10123108714_1_0" index="0" disallow="tram rail_urban rail rail_electric rail_fast ship container cable_car subway aircraft wheelchair scooter drone" speed="16.67" length="5.00" shape="986.41,1425.66 989.77,1421.96"/>
    </edge>
    <edge id=":10123108715_0" function="internal">
        <lane id=":10123108715_0_0" index="0" disallow="tram rail_urban rail rail_electric rail_fast ship container cable_car subway aircraft wheelchair scooter drone" speed="27.78" length="5.12" shape="992.25,1431.24 995.69,1427.45"/>
        <lane id=":10123108715_0_1" index="1" disallow="tram rail_urban rail rail_electric rail_fast ship container cable_car subway aircraft wheelchair scooter drone" speed="27.78" length="5.12" shape="994.62,1433.39 998.06,1429.60"/>
    </edge>
    <edge id=":10123108716_0" function="internal">
        <lane id=":10123108716_0_0" index="0" disallow="tram rail_urban rail rail_electric rail_fast ship container cable_car subway aircraft wheelchair scooter drone" speed="27.78" length="5.00" shape="1005.50,1436.34 1002.19,1440.09"/>
        <lane id=":10123108716_0_1" index="1" disallow="tram rail_urban rail rail_electric rail_fast ship container cable_car subway aircraft wheelchair scooter drone" speed="27.78" length="5.00" shape="1003.10,1434.22 999.79,1437.97"/>
    </edge>
    <edge id=":10123122417_0" function="internal">
        <lane id=":10123122417_0_0" index="0" disallow="tram rail_urban rail rail_electric rail_fast ship container cable_car subway aircraft wheelchair scooter drone" speed="22.22" length="5.00" shape="1122.71,1432.09 1118.09,1430.18"/>
        <lane id=":10123122417_0_1" index="1" disallow="tram rail_urban rail rail_electric rail_fast ship container cable_car subway aircraft wheelchair scooter drone" speed="22.22" length="5.00" shape="1123.93,1429.14 1119.31,1427.22"/>
    </edge>
    <edge id=":10123122418_0" function="internal">
        <lane id=":10123122418_0_0" index="0" disallow="tram rail_urban rail rail_electric rail_fast ship container cable_car subway aircraft wheelchair scooter drone" speed="22.22" length="5.00" shape="1124.56,1414.23 1129.18,1416.16"/>
        <lane id=":10123122418_0_1" index="1" disallow="tram rail_urban rail rail_electric rail_fast ship container cable_car subway aircraft wheelchair scooter drone" speed="22.22" length="5.00" shape="1123.33,1417.19 1127.94,1419.11"/>
    </edge>
    <edge id=":10123122423_0" function="internal">
        <lane id=":10123122423_0_0" index="0" disallow="tram rail_urban rail rail_electric rail_fast ship container cable_car subway aircraft wheelchair scooter drone" speed="13.89" length="5.07" shape="1645.31,1942.36 1650.38,1942.43"/>
    </edge>
    <edge id=":10123122424_0" function="internal">
        <lane id=":10123122424_0_0" index="0" disallow="tram rail_urban rail rail_electric rail_fast ship container cable_car subway aircraft wheelchair scooter drone" speed="22.22" length="6.19" shape="1653.87,1931.37 1652.86,1929.81 1651.51,1929.15 1650.16,1928.49 1649.15,1926.92"/>
        <lane id=":10123122424_0_1" index="1" disallow="tram rail_urban rail rail_electric rail_fast ship container cable_car subway aircraft wheelchair scooter drone" speed="22.22" length="6.19" shape="1653.87,1931.37 1652.21,1925.98"/>
    </edge>
    <edge id=":10123122425_0" function="internal">
        <lane id=":10123122425_0_0" index="0" allow="pedestrian delivery bicycle" speed="5.56" length="5.00" shape="2130.25,1834.04 2130.01,1829.04"/>
    </edge>
    <edge id=":10123122425_1" function="internal">
        <lane id=":10123122425_1_0" index="0" allow="pedestrian delivery bicycle" speed="3.65" length="1.44" shape="2130.25,1834.04 2130.99,1832.80"/>
    </edge>
    <edge id=":10123122425_4" function="internal">
        <lane id=":10123122425_4_0" index="0" allow="pedestrian delivery bicycle" speed="3.65" length="3.23" shape="2130.99,1832.80 2131.77,1832.36 2132.59,1832.73 2133.45,1833.89"/>
    </edge>
    <edge id=":10123122425_2" function="internal">
        <lane id=":10123122425_2_0" index="0" allow="pedestrian delivery bicycle" speed="5.56" length="5.00" shape="2133.21,1828.89 2133.45,1833.89"/>
    </edge>
    <edge id=":10123122425_3" function="internal">
        <lane id=":10123122425_3_0" index="0" allow="pedestrian delivery bicycle" speed="3.65" length="1.44" shape="2133.21,1828.89 2132.47,1830.13"/>
    </edge>
    <edge id=":10123122425_5" function="internal">
        <lane id=":10123122425_5_0" index="0" allow="pedestrian delivery bicycle" speed="3.65" length="3.23" shape="2132.47,1830.13 2131.69,1830.56 2130.87,1830.20 2130.01,1829.04"/>
    </edge>
    <edge id=":10123122426_0" function="internal">
        <lane id=":10123122426_0_0" index="0" disallow="tram rail_urban rail rail_electric rail_fast ship container cable_car subway aircraft wheelchair scooter drone" speed="22.22" length="5.41" shape="2102.11,1839.92 2103.69,1839.64 2104.77,1839.44 2105.86,1839.30 2107.46,1839.17"/>
    </edge>
    <edge id=":10123122427_0" function="internal">
        <lane id=":10123122427_0_0" index="0" disallow="tram rail_urban rail rail_electric rail_fast ship container cable_car subway aircraft wheelchair scooter drone" speed="22.22" length="5.05" shape="2107.64,1850.90 2102.60,1850.99"/>
    </edge>
    <edge id=":10123122437_0" function="internal">
        <lane id=":10123122437_0_0" index="0" disallow="tram rail_urban rail rail_electric rail_fast ship container cable_car subway aircraft wheelchair scooter drone" speed="22.22" length="5.06" shape="2137.04,2260.63 2138.13,2255.70"/>
    </edge>
    <edge id=":10123122438_0" function="internal">
        <lane id=":10123122438_0_0" index="0" disallow="tram rail_urban rail rail_electric rail_fast ship container cable_car subway aircraft wheelchair scooter drone" speed="22.22" length="2.25" shape="2150.95,2250.53 2151.70,2252.66"/>
    </edge>
    <edge id=":10123122451_0" function="internal">
        <lane id=":10123122451_0_0" index="0" disallow="tram rail_urban rail rail_electric rail_fast ship container cable_car subway aircraft wheelchair scooter drone" speed="22.22" length="4.82" shape="1217.40,2440.85 1215.97,2440.75 1215.00,2440.65 1214.03,2440.51 1212.62,2440.25"/>
    </edge>
    <edge id=":10123122451_1" function="internal">
        <lane id=":10123122451_1_0" index="0" disallow="tram rail_urban rail rail_electric rail_fast ship container cable_car subway aircraft wheelchair scooter drone" speed="22.22" length="4.46" shape="1213.20,2437.11 1214.50,2437.34 1215.40,2437.48 1216.30,2437.56 1217.62,2437.66"/>
    </edge>
    <edge id=":10123122467_0" function="internal">
        <lane id=":10123122467_0_0" index="0" disallow="tram rail_urban rail rail_electric rail_fast ship container cable_car subway aircraft wheelchair scooter drone" speed="22.22" length="5.00" shape="753.52,2126.29 755.08,2131.04"/>
    </edge>
    <edge id=":10123122471_0" function="internal">
        <lane id=":10123122471_0_0" index="0" allow="pedestrian bicycle" speed="5.35" length="6.32" width="2.00" shape="968.00,1797.01 967.67,1795.57 968.04,1794.31 969.11,1793.20 970.87,1792.27"/>
    </edge>
    <edge id=":10123122471_1" function="internal">
        <lane id=":10123122471_1_0" index="0" allow="pedestrian bicycle" speed="2.89" length="2.92" width="2.00" shape="968.00,1797.01 968.15,1796.12 968.50,1795.69 969.06,1795.71 969.83,1796.19"/>
    </edge>
    <edge id=":10123122471_2" function="internal">
        <lane id=":10123122471_2_0" index="0" disallow="tram rail_urban rail rail_electric rail_fast ship container cable_car subway aircraft wheelchair scooter drone" speed="22.22" length="7.21" shape="964.38,1795.38 966.25,1794.34 967.55,1793.67 968.89,1793.08 970.87,1792.27"/>
    </edge>
    <edge id=":10123122471_3" function="internal">
        <lane id=":10123122471_3_0" index="0" allow="pedestrian bicycle" speed="5.42" length="6.35" width="2.00" shape="964.38,1795.38 966.25,1794.58 967.78,1794.45 968.97,1794.98 969.83,1796.19"/>
    </edge>
    <edge id=":10123122472_0" function="internal">
        <lane id=":10123122472_0_0" index="0" disallow="tram rail_urban rail rail_electric rail_fast ship container cable_car subway aircraft wheelchair scooter drone" speed="22.22" length="4.29" shape="1152.84,1826.42 1153.78,1827.27 1154.37,1827.91 1154.90,1828.61 1155.64,1829.64"/>
    </edge>
    <edge id=":10123122483_0" function="internal">
        <lane id=":10123122483_0_0" index="0" disallow="tram rail_urban rail rail_electric rail_fast ship container cable_car subway aircraft wheelchair scooter drone" speed="22.22" length="5.07" shape="1381.54,1792.38 1379.28,1787.84"/>
    </edge>
    <edge id=":10123122483_1" function="internal">
        <lane id=":10123122483_1_0" index="0" disallow="tram rail_urban rail rail_electric rail_fast ship container cable_car subway aircraft wheelchair scooter drone" speed="22.22" length="5.08" shape="1382.14,1786.41 1384.41,1790.96"/>
    </edge>
    <edge id=":10123122485_0" function="internal">
        <lane id=":10123122485_0_0" index="0" disallow="tram rail_urban rail rail_electric rail_fast ship container cable_car subway aircraft wheelchair scooter drone" speed="13.89" length="5.07" shape="1377.98,1799.98 1373.28,1801.88"/>
    </edge>
    <edge id=":10123122486_0" function="internal">
        <lane id=":10123122486_0_0" index="0" disallow="tram rail_urban rail rail_electric rail_fast ship container cable_car subway aircraft wheelchair scooter drone" speed="22.22" length="2.02" shape="1624.20,1778.14 1623.78,1776.16"/>
    </edge>
    <edge id=":10123122487_0" function="internal">
        <lane id=":10123122487_0_0" index="0" disallow="tram rail_urban rail rail_electric rail_fast ship container cable_car subway aircraft wheelchair scooter drone" speed="22.22" length="5.26" shape="1616.73,1726.58 1616.46,1721.33"/>
    </edge>
    <edge id=":10123122488_0" function="internal">
        <lane id=":10123122488_0_0" index="0" disallow="tram rail_urban rail rail_electric rail_fast ship container cable_car subway aircraft wheelchair scooter drone" speed="22.22" length="5.23" shape="1574.18,1745.56 1571.65,1740.99"/>
        <lane id=":10123122488_0_1" index="1" disallow="tram rail_urban rail rail_electric rail_fast ship container cable_car subway aircraft wheelchair scooter drone" speed="22.22" length="5.23" shape="1576.98,1744.01 1574.45,1739.44"/>
    </edge>
    <edge id=":10123122489_0" function="internal">
        <lane id=":10123122489_0_0" index="0" disallow="tram rail_urban rail rail_electric rail_fast ship container cable_car subway aircraft wheelchair scooter drone" speed="22.22" length="5.10" shape="1586.33,1732.18 1588.77,1736.68"/>
        <lane id=":10123122489_0_1" index="1" disallow="tram rail_urban rail rail_electric rail_fast ship container cable_car subway aircraft wheelchair scooter drone" speed="22.22" length="5.10" shape="1583.53,1733.73 1585.95,1738.19"/>
    </edge>
    <edge id=":10123122492_0" function="internal">
        <lane id=":10123122492_0_0" index="0" disallow="tram rail_urban rail rail_electric rail_fast ship container cable_car subway aircraft wheelchair scooter drone" speed="22.22" length="5.27" shape="1417.85,1580.92 1413.83,1577.52"/>
        <lane id=":10123122492_0_1" index="1" disallow="tram rail_urban rail rail_electric rail_fast ship container cable_car subway aircraft wheelchair scooter drone" speed="22.22" length="5.27" shape="1419.92,1578.47 1415.89,1575.07"/>
    </edge>
    <edge id=":10123122493_0" function="internal">
        <lane id=":10123122493_0_0" index="0" disallow="tram rail_urban rail rail_electric rail_fast ship container cable_car subway aircraft wheelchair scooter drone" speed="13.89" length="4.26" shape="1405.54,1577.01 1402.50,1579.99"/>
    </edge>
    <edge id=":10123122495_0" function="internal">
        <lane id=":10123122495_0_0" index="0" disallow="tram rail_urban rail rail_electric rail_fast ship container cable_car subway aircraft wheelchair scooter drone" speed="13.89" length="4.35" shape="1182.08,1603.23 1183.80,1599.24"/>
    </edge>
    <edge id=":10123122497_0" function="internal">
        <lane id=":10123122497_0_0" index="0" disallow="tram rail_urban rail rail_electric rail_fast ship container cable_car subway aircraft wheelchair scooter drone" speed="22.22" length="5.06" shape="1181.18,1590.87 1176.50,1588.93"/>
    </edge>
    <edge id=":10123122506_0" function="internal">
        <lane id=":10123122506_0_0" index="0" disallow="tram rail_urban rail rail_electric rail_fast ship container cable_car subway aircraft wheelchair scooter drone" speed="22.22" length="5.00" shape="1251.28,1486.00 1246.69,1484.01"/>
        <lane id=":10123122506_0_1" index="1" disallow="tram rail_urban rail rail_electric rail_fast ship container cable_car subway aircraft wheelchair scooter drone" speed="22.22" length="5.00" shape="1252.55,1483.07 1247.97,1481.08"/>
    </edge>
    <edge id=":10123122507_0" function="internal">
        <lane id=":10123122507_0_0" index="0" disallow="tram rail_urban rail rail_electric rail_fast ship container cable_car subway aircraft wheelchair scooter drone" speed="22.22" length="4.24" shape="1254.37,1468.17 1258.21,1469.98"/>
        <lane id=":10123122507_0_1" index="1" disallow="tram rail_urban rail rail_electric rail_fast ship container cable_car subway aircraft wheelchair scooter drone" speed="22.22" length="4.24" shape="1253.01,1471.06 1256.84,1472.88"/>
    </edge>
    <edge id=":10123122518_0" function="internal">
        <lane id=":10123122518_0_0" index="0" allow="emergency authority bus bicycle" speed="22.22" length="5.00" shape="1345.34,959.50 1349.75,961.86"/>
    </edge>
    <edge id=":10123122519_0" function="internal">
        <lane id=":10123122519_0_0" index="0" disallow="tram rail_urban rail rail_electric rail_fast ship container cable_car subway aircraft wheelchair scooter drone" speed="27.78" length="5.01" shape="1342.96,964.19 1347.45,966.39"/>
        <lane id=":10123122519_0_1" index="1" disallow="tram rail_urban rail rail_electric rail_fast ship container cable_car subway aircraft wheelchair scooter drone" speed="27.78" length="5.01" shape="1341.54,967.06 1346.04,969.26"/>
    </edge>
    <edge id=":10125157356_0" function="internal">
        <lane id=":10125157356_0_0" index="0" disallow="tram rail_urban rail rail_electric rail_fast ship container cable_car subway aircraft wheelchair scooter drone" speed="22.22" length="5.00" shape="1577.47,2258.77 1580.27,2254.63"/>
    </edge>
    <edge id=":10125157357_0" function="internal">
        <lane id=":10125157357_0_0" index="0" disallow="tram rail_urban rail rail_electric rail_fast ship container cable_car subway aircraft wheelchair scooter drone" speed="22.22" length="5.60" shape="1590.26,2261.25 1589.78,2262.87 1590.20,2264.22 1590.63,2265.56 1590.14,2267.18"/>
        <lane id=":10125157357_0_1" index="1" disallow="tram rail_urban rail rail_electric rail_fast ship container cable_car subway aircraft wheelchair scooter drone" speed="22.22" length="5.60" shape="1590.26,2261.25 1587.48,2265.41"/>
    </edge>
    <edge id=":10125157358_0" function="internal">
        <lane id=":10125157358_0_0" index="0" disallow="tram rail_urban rail rail_electric rail_fast ship container cable_car subway aircraft wheelchair scooter drone" speed="22.22" length="5.02" shape="1617.63,2218.84 1614.95,2223.09"/>
    </edge>
    <edge id=":1037621582_0" function="internal">
        <lane id=":1037621582_0_0" index="0" allow="pedestrian delivery bicycle" speed="6.45" length="5.35" shape="782.12,1827.10 780.68,1826.42 779.35,1826.11 778.14,1826.17 777.03,1826.60"/>
    </edge>
    <edge id=":1037621582_1" function="internal">
        <lane id=":1037621582_1_0" index="0" allow="pedestrian delivery bicycle" speed="16.67" length="0.47" shape="782.40,1823.12 782.28,1823.21 782.17,1823.29 782.12,1823.37 782.18,1823.44"/>
    </edge>
    <edge id=":1037621582_2" function="internal">
        <lane id=":1037621582_2_0" index="0" disallow="tram rail_urban rail rail_electric rail_fast ship container cable_car subway aircraft wheelchair scooter drone" speed="27.78" length="6.41" shape="782.40,1823.12 780.89,1824.27 779.81,1825.00 778.68,1825.65 777.03,1826.60"/>
    </edge>
    <edge id=":1037621613_0" function="internal">
        <lane id=":1037621613_0_0" index="0" disallow="tram rail_urban rail rail_electric rail_fast ship container cable_car subway aircraft wheelchair scooter drone" speed="5.54" length="7.06" shape="1035.81,1360.41 1036.72,1362.79 1037.76,1364.31 1038.93,1364.94 1040.25,1364.71"/>
        <lane id=":1037621613_0_1" index="1" disallow="tram rail_urban rail rail_electric rail_fast ship container cable_car subway aircraft wheelchair scooter drone" speed="7.22" length="12.80" shape="1032.74,1361.32 1034.33,1365.19 1036.34,1367.52 1038.79,1368.32 1041.65,1367.58"/>
    </edge>
    <edge id=":1037621613_2" function="internal">
        <lane id=":1037621613_2_0" index="0" disallow="tram rail_urban rail rail_electric rail_fast ship container cable_car subway aircraft wheelchair scooter drone" speed="27.78" length="11.22" shape="1030.47,1370.70 1033.23,1368.70 1035.17,1367.39 1037.20,1366.23 1040.25,1364.71"/>
        <lane id=":1037621613_2_1" index="1" disallow="tram rail_urban rail rail_electric rail_fast ship container cable_car subway aircraft wheelchair scooter drone" speed="27.78" length="11.22" shape="1032.34,1373.29 1034.97,1371.39 1036.82,1370.14 1038.75,1369.04 1041.65,1367.58"/>
    </edge>
    <edge id=":1037621615_0" function="internal">
        <lane id=":1037621615_0_0" index="0" disallow="tram rail_urban rail rail_electric rail_fast ship container cable_car subway aircraft wheelchair scooter drone" speed="27.78" length="4.90" shape="1051.30,1426.35 1049.76,1426.71 1048.73,1427.22 1047.71,1427.63 1046.17,1427.67"/>
        <lane id=":1037621615_0_1" index="1" disallow="tram rail_urban rail rail_electric rail_fast ship container cable_car subway aircraft wheelchair scooter drone" speed="27.78" length="4.90" shape="1050.99,1423.17 1049.65,1423.51 1048.77,1424.02 1047.89,1424.43 1046.55,1424.49"/>
        <lane id=":1037621615_0_2" index="2" disallow="tram rail_urban rail rail_electric rail_fast ship container cable_car subway aircraft wheelchair scooter drone" speed="27.78" length="4.90" shape="1050.99,1423.17 1049.73,1423.01 1048.95,1422.42 1048.18,1421.74 1046.92,1421.31"/>
    </edge>
    <edge id=":1037621634_0" function="internal">
        <lane id=":1037621634_0_0" index="0" disallow="tram rail_urban rail rail_electric rail_fast ship container cable_car subway aircraft wheelchair scooter drone" speed="27.78" length="6.47" shape="722.05,1813.36 720.98,1811.76 720.25,1810.67 719.59,1809.54 718.70,1807.83"/>
    </edge>
    <edge id=":1037621634_1" function="internal">
        <lane id=":1037621634_1_0" index="0" disallow="tram rail_urban rail rail_electric rail_fast ship container cable_car subway aircraft wheelchair scooter drone" speed="9.72" length="7.18" shape="718.42,1814.73 719.02,1812.67 719.45,1811.18 719.42,1809.74 718.70,1807.83"/>
    </edge>
    <edge id=":1037621636_0" function="internal">
        <lane id=":1037621636_0_0" index="0" disallow="tram rail_urban rail rail_electric rail_fast ship container cable_car subway aircraft wheelchair scooter drone" speed="6.21" length="7.66" shape="733.36,1826.59 731.38,1825.58 729.58,1825.35 727.97,1825.88 726.54,1827.18"/>
    </edge>
    <edge id=":1037621636_1" function="internal">
        <lane id=":1037621636_1_0" index="0" disallow="tram rail_urban rail rail_electric rail_fast ship container cable_car subway aircraft wheelchair scooter drone" speed="27.78" length="8.06" shape="733.36,1826.59 731.35,1825.21 730.01,1824.20 728.73,1823.13 726.86,1821.56"/>
        <lane id=":1037621636_1_1" index="1" disallow="tram rail_urban rail rail_electric rail_fast ship container cable_car subway aircraft wheelchair scooter drone" speed="27.78" length="8.06" shape="735.14,1823.94 733.21,1822.61 731.93,1821.64 730.70,1820.61 728.91,1819.10"/>
    </edge>
    <edge id=":1037621679_0" function="internal">
        <lane id=":1037621679_0_0" index="0" disallow="tram rail_urban rail rail_electric rail_fast ship container cable_car subway aircraft wheelchair scooter drone" speed="7.83" length="5.85" shape="1024.96,1376.48 1022.09,1371.38"/>
        <lane id=":1037621679_0_1" index="1" disallow="tram rail_urban rail rail_electric rail_fast ship container cable_car subway aircraft wheelchair scooter drone" speed="8.06" length="6.23" shape="1024.96,1376.48 1025.48,1375.23 1025.68,1373.80 1025.57,1372.20 1025.15,1370.43"/>
    </edge>
    <edge id=":1037621679_2" function="internal">
        <lane id=":1037621679_2_0" index="0" disallow="tram rail_urban rail rail_electric rail_fast ship container cable_car subway aircraft wheelchair scooter drone" speed="15.63" length="6.70" shape="1024.96,1376.48 1026.02,1374.70 1026.86,1373.55 1027.91,1372.58 1029.57,1371.34"/>