<?xml version="1.0" encoding="UTF-8"?>

<!-- generated on 2025-06-13 12:18:52.912215 by generateParkingAreas.py UNKNOWN
<configuration>
    <net-file value="unicamp_routine/osm.net.xml"/>
    <output-file value="unicamp_routine/park.add.xml"/>
    <verbose value="True"/>
</configuration>
-->

<additional xmlns:xsi="http://www.w3.org/2001/XMLSchema-instance" xsi:noNamespaceSchemaLocation="http://sumo.dlr.de/xsd/additional_file.xsd">
    <parkingArea id="pa-1046248579" lane="-1046248579_0" roadsideCapacity="133" length="5"/>
    <parkingArea id="pa-1081222347" lane="-1081222347_0" roadsideCapacity="29" length="5"/>
    <parkingArea id="pa-1388130339#1" lane="-1388130339#1_0" roadsideCapacity="5" length="5"/>
    <parkingArea id="pa-1388130340#1" lane="-1388130340#1_0" roadsideCapacity="2" length="5"/>
    <parkingArea id="pa-1388130340#2" lane="-1388130340#2_0" roadsideCapacity="16" length="5"/>
    <parkingArea id="pa-1388130341#0" lane="-1388130341#0_0" roadsideCapacity="12" length="5"/>
    <parkingArea id="pa-1388130341#3" lane="-1388130341#3_0" roadsideCapacity="18" length="5"/>
    <parkingArea id="pa-1388130341#4" lane="-1388130341#4_0" roadsideCapacity="1" length="5"/>
    <parkingArea id="pa-147379106#0" lane="-147379106#0_0" roadsideCapacity="25" length="5"/>
    <parkingArea id="pa-147379106#1" lane="-147379106#1_0" roadsideCapacity="24" length="5"/>
    <parkingArea id="pa-147379106#2" lane="-147379106#2_0" roadsideCapacity="19" length="5"/>
    <parkingArea id="pa-147379107#0" lane="-147379107#0_0" roadsideCapacity="24" length="5"/>
    <parkingArea id="pa-147379107#1" lane="-147379107#1_0" roadsideCapacity="25" length="5"/>
    <parkingArea id="pa-147379107#2" lane="-147379107#2_0" roadsideCapacity="22" length="5"/>
    <parkingArea id="pa-179051712#0" lane="-179051712#0_0" roadsideCapacity="12" length="5"/>
    <parkingArea id="pa-179051712#1" lane="-179051712#1_0" roadsideCapacity="26" length="5"/>
    <parkingArea id="pa-179051712#2" lane="-179051712#2_0" roadsideCapacity="26" length="5"/>
    <parkingArea id="pa-179051712#3" lane="-179051712#3_0" roadsideCapacity="6" length="5"/>
    <parkingArea id="pa-179051712#4" lane="-179051712#4_0" roadsideCapacity="9" length="5"/>
    <parkingArea id="pa-183876531#0" lane="-183876531#0_0" roadsideCapacity="1" length="5"/>
    <parkingArea id="pa-183876531#1" lane="-183876531#1_0" roadsideCapacity="4" length="5"/>
    <parkingArea id="pa-183876531#2" lane="-183876531#2_0" roadsideCapacity="3" length="5"/>
    <parkingArea id="pa-183876531#3" lane="-183876531#3_0" roadsideCapacity="4" length="5"/>
    <parkingArea id="pa-183876531#4" lane="-183876531#4_0" roadsideCapacity="3" length="5"/>
    <parkingArea id="pa-183876531#6" lane="-183876531#6_0" roadsideCapacity="7" length="5"/>
    <parkingArea id="pa-183876531#7" lane="-183876531#7_0" roadsideCapacity="15" length="5"/>
    <parkingArea id="pa-223126919#0" lane="-223126919#0_0" roadsideCapacity="25" length="5"/>
    <parkingArea id="pa-223126919#1" lane="-223126919#1_0" roadsideCapacity="25" length="5"/>
    <parkingArea id="pa-223126919#2" lane="-223126919#2_0" roadsideCapacity="20" length="5"/>
    <parkingArea id="pa-278132384#0" lane="-278132384#0_0" roadsideCapacity="7" length="5"/>
    <parkingArea id="pa-278132384#1" lane="-278132384#1_0" roadsideCapacity="17" length="5"/>
    <parkingArea id="pa-278132384#2" lane="-278132384#2_0" roadsideCapacity="12" length="5"/>
    <parkingArea id="pa-329703621#0" lane="-329703621#0_0" roadsideCapacity="3" length="5"/>
    <parkingArea id="pa-329703621#1" lane="-329703621#1_0" roadsideCapacity="10" length="5"/>
    <parkingArea id="pa-329703621#2" lane="-329703621#2_0" roadsideCapacity="9" length="5"/>
    <parkingArea id="pa-329703621#3" lane="-329703621#3_0" roadsideCapacity="11" length="5"/>
    <parkingArea id="pa-329703621#4" lane="-329703621#4_0" roadsideCapacity="2" length="5"/>
    <parkingArea id="pa-329703621#5" lane="-329703621#5_0" roadsideCapacity="14" length="5"/>
    <parkingArea id="pa-329703621#6" lane="-329703621#6_0" roadsideCapacity="2" length="5"/>
    <parkingArea id="pa-329703621#7" lane="-329703621#7_0" roadsideCapacity="1" length="5"/>
    <parkingArea id="pa-329703621#8" lane="-329703621#8_0" roadsideCapacity="8" length="5"/>
    <parkingArea id="pa-333333538" lane="-333333538_0" roadsideCapacity="24" length="5"/>
    <parkingArea id="pa-447326048#1" lane="-447326048#1_0" roadsideCapacity="13" length="5"/>
    <parkingArea id="pa-447326048#2" lane="-447326048#2_0" roadsideCapacity="7" length="5"/>
    <parkingArea id="pa-447326050#1" lane="-447326050#1_0" roadsideCapacity="8" length="5"/>
    <parkingArea id="pa-447326319#1" lane="-447326319#1_0" roadsideCapacity="2" length="5"/>
    <parkingArea id="pa-447326319#2" lane="-447326319#2_0" roadsideCapacity="2" length="5"/>
    <parkingArea id="pa-447326319#3" lane="-447326319#3_0" roadsideCapacity="11" length="5"/>
    <parkingArea id="pa-447326319#4" lane="-447326319#4_0" roadsideCapacity="5" length="5"/>
    <parkingArea id="pa-537232373" lane="-537232373_0" roadsideCapacity="33" length="5"/>
    <parkingArea id="pa-537232374#0" lane="-537232374#0_0" roadsideCapacity="22" length="5"/>
    <parkingArea id="pa-537232374#1" lane="-537232374#1_0" roadsideCapacity="11" length="5"/>
    <parkingArea id="pa-537232374#2" lane="-537232374#2_0" roadsideCapacity="23" length="5"/>
    <parkingArea id="pa-537232375" lane="-537232375_0" roadsideCapacity="14" length="5"/>
    <parkingArea id="pa-537232376" lane="-537232376_0" roadsideCapacity="13" length="5"/>
    <parkingArea id="pa-563505734#0" lane="-563505734#0_0" roadsideCapacity="19" length="5"/>
    <parkingArea id="pa-563505734#1" lane="-563505734#1_0" roadsideCapacity="24" length="5"/>
    <parkingArea id="pa-563505734#2" lane="-563505734#2_0" roadsideCapacity="14" length="5"/>
    <parkingArea id="pa-563505734#3" lane="-563505734#3_0" roadsideCapacity="7" length="5"/>
    <parkingArea id="pa-563505734#4" lane="-563505734#4_0" roadsideCapacity="19" length="5"/>
    <parkingArea id="pa-563505766#1" lane="-563505766#1_0" roadsideCapacity="22" length="5"/>
    <parkingArea id="pa-563505767#1" lane="-563505767#1_0" roadsideCapacity="37" length="5"/>
    <parkingArea id="pa-563505769#0" lane="-563505769#0_0" roadsideCapacity="13" length="5"/>
    <parkingArea id="pa-563505769#1" lane="-563505769#1_0" roadsideCapacity="9" length="5"/>
    <parkingArea id="pa-563505769#11" lane="-563505769#11_0" roadsideCapacity="12" length="5"/>
    <parkingArea id="pa-563505769#13" lane="-563505769#13_0" roadsideCapacity="5" length="5"/>
    <parkingArea id="pa-563505769#16" lane="-563505769#16_0" roadsideCapacity="4" length="5"/>
    <parkingArea id="pa-563505769#18" lane="-563505769#18_0" roadsideCapacity="12" length="5"/>
    <parkingArea id="pa-563505769#2" lane="-563505769#2_0" roadsideCapacity="4" length="5"/>
    <parkingArea id="pa-563505769#3" lane="-563505769#3_0" roadsideCapacity="4" length="5"/>
    <parkingArea id="pa-563505769#6" lane="-563505769#6_0" roadsideCapacity="5" length="5"/>
    <parkingArea id="pa-563505769#7" lane="-563505769#7_0" roadsideCapacity="10" length="5"/>
    <parkingArea id="pa-563505769#8" lane="-563505769#8_0" roadsideCapacity="2" length="5"/>
    <parkingArea id="pa-564511813#0" lane="-564511813#0_0" roadsideCapacity="27" length="5"/>
    <parkingArea id="pa-564511814" lane="-564511814_0" roadsideCapacity="9" length="5"/>
    <parkingArea id="pa-664968457#0" lane="-664968457#0_0" roadsideCapacity="1" length="5"/>
    <parkingArea id="pa-70080981#0" lane="-70080981#0_0" roadsideCapacity="24" length="5"/>
    <parkingArea id="pa-70080981#1" lane="-70080981#1_0" roadsideCapacity="25" length="5"/>
    <parkingArea id="pa-70080981#2" lane="-70080981#2_0" roadsideCapacity="15" length="5"/>
    <parkingArea id="pa-70080981#3" lane="-70080981#3_0" roadsideCapacity="5" length="5"/>
    <parkingArea id="pa-70200192#0" lane="-70200192#0_0" roadsideCapacity="25" length="5"/>
    <parkingArea id="pa-70200192#1" lane="-70200192#1_0" roadsideCapacity="10" length="5"/>
    <parkingArea id="pa-70200192#2" lane="-70200192#2_0" roadsideCapacity="9" length="5"/>
    <parkingArea id="pa-70200192#3" lane="-70200192#3_0" roadsideCapacity="9" length="5"/>
    <parkingArea id="pa-70200192#4" lane="-70200192#4_0" roadsideCapacity="10" length="5"/>
    <parkingArea id="pa-70200192#5" lane="-70200192#5_0" roadsideCapacity="10" length="5"/>
    <parkingArea id="pa-70200192#6" lane="-70200192#6_0" roadsideCapacity="12" length="5"/>
    <parkingArea id="pa-70200193" lane="-70200193_0" roadsideCapacity="64" length="5"/>
    <parkingArea id="pa-70200197#0" lane="-70200197#0_0" roadsideCapacity="4" length="5"/>
    <parkingArea id="pa-70200197#1" lane="-70200197#1_0" roadsideCapacity="10" length="5"/>
    <parkingArea id="pa-70200197#2" lane="-70200197#2_0" roadsideCapacity="9" length="5"/>
    <parkingArea id="pa-70200197#3" lane="-70200197#3_0" roadsideCapacity="10" length="5"/>
    <parkingArea id="pa-70200197#4" lane="-70200197#4_0" roadsideCapacity="9" length="5"/>
    <parkingArea id="pa-70200197#5" lane="-70200197#5_0" roadsideCapacity="23" length="5"/>
    <parkingArea id="pa-70200199#0" lane="-70200199#0_0" roadsideCapacity="47" length="5"/>
    <parkingArea id="pa-70200199#1" lane="-70200199#1_0" roadsideCapacity="8" length="5"/>
    <parkingArea id="pa-70200199#2" lane="-70200199#2_0" roadsideCapacity="11" length="5"/>
    <parkingArea id="pa-70200199#3" lane="-70200199#3_0" roadsideCapacity="9" length="5"/>
    <parkingArea id="pa-70200199#4" lane="-70200199#4_0" roadsideCapacity="9" length="5"/>
    <parkingArea id="pa-70200199#5" lane="-70200199#5_0" roadsideCapacity="10" length="5"/>
    <parkingArea id="pa-70200199#6" lane="-70200199#6_0" roadsideCapacity="2" length="5"/>
    <parkingArea id="pa-72508571#0" lane="-72508571#0_0" roadsideCapacity="17" length="5"/>
    <parkingArea id="pa-72508571#1" lane="-72508571#1_0" roadsideCapacity="24" length="5"/>
    <parkingArea id="pa-72508571#2" lane="-72508571#2_0" roadsideCapacity="21" length="5"/>
    <parkingArea id="pa-72508821#0" lane="-72508821#0_0" roadsideCapacity="10" length="5"/>
    <parkingArea id="pa-72508821#1" lane="-72508821#1_0" roadsideCapacity="10" length="5"/>
    <parkingArea id="pa-72508821#2" lane="-72508821#2_0" roadsideCapacity="10" length="5"/>
    <parkingArea id="pa-72508821#3" lane="-72508821#3_0" roadsideCapacity="10" length="5"/>
    <parkingArea id="pa-72508821#4" lane="-72508821#4_0" roadsideCapacity="10" length="5"/>
    <parkingArea id="pa-72508821#5" lane="-72508821#5_0" roadsideCapacity="11" length="5"/>
    <parkingArea id="pa-72631942#0" lane="-72631942#0_0" roadsideCapacity="25" length="5"/>
    <parkingArea id="pa-72631942#1" lane="-72631942#1_0" roadsideCapacity="19" length="5"/>
    <parkingArea id="pa-72641085#0" lane="-72641085#0_0" roadsideCapacity="20" length="5"/>
    <parkingArea id="pa-72641085#1" lane="-72641085#1_0" roadsideCapacity="25" length="5"/>
    <parkingArea id="pa-72641085#2" lane="-72641085#2_0" roadsideCapacity="14" length="5"/>
    <parkingArea id="pa-72641085#3" lane="-72641085#3_0" roadsideCapacity="7" length="5"/>
    <parkingArea id="pa-72641085#4" lane="-72641085#4_0" roadsideCapacity="13" length="5"/>
    <parkingArea id="pa-72644044#0" lane="-72644044#0_0" roadsideCapacity="54" length="5"/>
    <parkingArea id="pa-72644044#2" lane="-72644044#2_0" roadsideCapacity="1" length="5"/>
    <parkingArea id="pa-72644044#3" lane="-72644044#3_0" roadsideCapacity="18" length="5"/>
    <parkingArea id="pa-72644044#4" lane="-72644044#4_0" roadsideCapacity="24" length="5"/>
    <parkingArea id="pa-72644044#5" lane="-72644044#5_0" roadsideCapacity="24" length="5"/>
    <parkingArea id="pa-72644044#6" lane="-72644044#6_0" roadsideCapacity="23" length="5"/>
    <parkingArea id="pa-72644721#0" lane="-72644721#0_0" roadsideCapacity="9" length="5"/>
    <parkingArea id="pa-72644721#1" lane="-72644721#1_0" roadsideCapacity="9" length="5"/>
    <parkingArea id="pa-72644721#2" lane="-72644721#2_0" roadsideCapacity="10" length="5"/>
    <parkingArea id="pa-72644721#3" lane="-72644721#3_0" roadsideCapacity="9" length="5"/>
    <parkingArea id="pa-72644721#4" lane="-72644721#4_0" roadsideCapacity="10" length="5"/>
    <parkingArea id="pa-72644721#5" lane="-72644721#5_0" roadsideCapacity="9" length="5"/>
    <parkingArea id="pa-72644721#6" lane="-72644721#6_0" roadsideCapacity="10" length="5"/>
    <parkingArea id="pa-72644721#7" lane="-72644721#7_0" roadsideCapacity="9" length="5"/>
    <parkingArea id="pa-72644726#0" lane="-72644726#0_0" roadsideCapacity="22" length="5"/>
    <parkingArea id="pa-72644726#1" lane="-72644726#1_0" roadsideCapacity="25" length="5"/>
    <parkingArea id="pa-72644726#2" lane="-72644726#2_0" roadsideCapacity="24" length="5"/>
    <parkingArea id="pa-72644726#3" lane="-72644726#3_0" roadsideCapacity="5" length="5"/>
    <parkingArea id="pa-72644727#0" lane="-72644727#0_0" roadsideCapacity="19" length="5"/>
    <parkingArea id="pa-72644727#1" lane="-72644727#1_0" roadsideCapacity="25" length="5"/>
    <parkingArea id="pa-72644727#2" lane="-72644727#2_0" roadsideCapacity="25" length="5"/>
    <parkingArea id="pa-75259399" lane="-75259399_0" roadsideCapacity="25" length="5"/>
    <parkingArea id="pa-75259400#0" lane="-75259400#0_0" roadsideCapacity="18" length="5"/>
    <parkingArea id="pa-75259400#1" lane="-75259400#1_0" roadsideCapacity="9" length="5"/>
    <parkingArea id="pa-75259400#2" lane="-75259400#2_0" roadsideCapacity="9" length="5"/>
    <parkingArea id="pa-75259400#3" lane="-75259400#3_0" roadsideCapacity="9" length="5"/>
    <parkingArea id="pa-75259400#4" lane="-75259400#4_0" roadsideCapacity="9" length="5"/>
    <parkingArea id="pa-75259400#5" lane="-75259400#5_0" roadsideCapacity="9" length="5"/>
    <parkingArea id="pa-75259400#6" lane="-75259400#6_0" roadsideCapacity="9" length="5"/>
    <parkingArea id="pa-75259400#7" lane="-75259400#7_0" roadsideCapacity="10" length="5"/>
    <parkingArea id="pa-75259402#0" lane="-75259402#0_0" roadsideCapacity="19" length="5"/>
    <parkingArea id="pa-75259402#1" lane="-75259402#1_0" roadsideCapacity="12" length="5"/>
    <parkingArea id="pa-75259402#2" lane="-75259402#2_0" roadsideCapacity="7" length="5"/>
    <parkingArea id="pa-75259405#0" lane="-75259405#0_0" roadsideCapacity="14" length="5"/>
    <parkingArea id="pa-75259405#1" lane="-75259405#1_0" roadsideCapacity="9" length="5"/>
    <parkingArea id="pa-75259405#2" lane="-75259405#2_0" roadsideCapacity="10" length="5"/>
    <parkingArea id="pa-75259405#3" lane="-75259405#3_0" roadsideCapacity="9" length="5"/>
    <parkingArea id="pa-75259405#4" lane="-75259405#4_0" roadsideCapacity="9" length="5"/>
    <parkingArea id="pa-75259405#5" lane="-75259405#5_0" roadsideCapacity="9" length="5"/>
    <parkingArea id="pa-75259405#6" lane="-75259405#6_0" roadsideCapacity="10" length="5"/>
    <parkingArea id="pa-75259405#7" lane="-75259405#7_0" roadsideCapacity="9" length="5"/>
    <parkingArea id="pa-75259406#0" lane="-75259406#0_0" roadsideCapacity="21" length="5"/>
    <parkingArea id="pa-75259406#1" lane="-75259406#1_0" roadsideCapacity="25" length="5"/>
    <parkingArea id="pa-75259406#2" lane="-75259406#2_0" roadsideCapacity="24" length="5"/>
    <parkingArea id="pa-75259406#3" lane="-75259406#3_0" roadsideCapacity="9" length="5"/>
    <parkingArea id="pa-75259407" lane="-75259407_0" roadsideCapacity="16" length="5"/>
    <parkingArea id="pa-75413329#0" lane="-75413329#0_0" roadsideCapacity="17" length="5"/>
    <parkingArea id="pa-75413329#1" lane="-75413329#1_0" roadsideCapacity="24" length="5"/>
    <parkingArea id="pa-75413329#2" lane="-75413329#2_0" roadsideCapacity="14" length="5"/>
    <parkingArea id="pa-75413330#0" lane="-75413330#0_0" roadsideCapacity="9" length="5"/>
    <parkingArea id="pa-75413330#1" lane="-75413330#1_0" roadsideCapacity="10" length="5"/>
    <parkingArea id="pa-75413330#2" lane="-75413330#2_0" roadsideCapacity="9" length="5"/>
    <parkingArea id="pa-75413330#3" lane="-75413330#3_0" roadsideCapacity="5" length="5"/>
    <parkingArea id="pa-75413331#0" lane="-75413331#0_0" roadsideCapacity="22" length="5"/>
    <parkingArea id="pa-75413331#1" lane="-75413331#1_0" roadsideCapacity="22" length="5"/>
    <parkingArea id="pa-75413332#0" lane="-75413332#0_0" roadsideCapacity="18" length="5"/>
    <parkingArea id="pa-75413332#1" lane="-75413332#1_0" roadsideCapacity="18" length="5"/>
    <parkingArea id="pa-75413333#0" lane="-75413333#0_0" roadsideCapacity="15" length="5"/>
    <parkingArea id="pa-75413333#1" lane="-75413333#1_0" roadsideCapacity="15" length="5"/>
    <parkingArea id="pa-75413336#0" lane="-75413336#0_0" roadsideCapacity="9" length="5"/>
    <parkingArea id="pa-75413336#1" lane="-75413336#1_0" roadsideCapacity="9" length="5"/>
    <parkingArea id="pa-75413336#2" lane="-75413336#2_0" roadsideCapacity="9" length="5"/>
    <parkingArea id="pa-75413336#3" lane="-75413336#3_0" roadsideCapacity="2" length="5"/>
    <parkingArea id="pa-75413339#2" lane="-75413339#2_0" roadsideCapacity="24" length="5"/>
    <parkingArea id="pa-75413339#3" lane="-75413339#3_0" roadsideCapacity="25" length="5"/>
    <parkingArea id="pa-75413339#4" lane="-75413339#4_0" roadsideCapacity="23" length="5"/>
    <parkingArea id="pa-75413343#0" lane="-75413343#0_0" roadsideCapacity="9" length="5"/>
    <parkingArea id="pa-75413343#1" lane="-75413343#1_0" roadsideCapacity="10" length="5"/>
    <parkingArea id="pa-75413343#2" lane="-75413343#2_0" roadsideCapacity="9" length="5"/>
    <parkingArea id="pa-75679328#1" lane="-75679328#1_0" roadsideCapacity="33" length="5"/>
    <parkingArea id="pa-75679328#2" lane="-75679328#2_0" roadsideCapacity="21" length="5"/>
    <parkingArea id="pa-75701376#1" lane="-75701376#1_0" roadsideCapacity="7" length="5"/>
    <parkingArea id="pa-75701376#2" lane="-75701376#2_0" roadsideCapacity="16" length="5"/>
    <parkingArea id="pa-75701376#3" lane="-75701376#3_0" roadsideCapacity="6" length="5"/>
    <parkingArea id="pa-75701376#4" lane="-75701376#4_0" roadsideCapacity="8" length="5"/>
    <parkingArea id="pa-75701376#5" lane="-75701376#5_0" roadsideCapacity="38" length="5"/>
    <parkingArea id="pa-75701376#6" lane="-75701376#6_0" roadsideCapacity="13" length="5"/>
    <parkingArea id="pa-75701376#7" lane="-75701376#7_0" roadsideCapacity="5" length="5"/>
    <parkingArea id="pa-77652221" lane="-77652221_0" roadsideCapacity="10" length="5"/>
    <parkingArea id="pa-77674920#0" lane="-77674920#0_0" roadsideCapacity="3" length="5"/>
    <parkingArea id="pa-77674920#2" lane="-77674920#2_0" roadsideCapacity="6" length="5"/>
    <parkingArea id="pa-889486571#1" lane="-889486571#1_0" roadsideCapacity="2" length="5"/>
    <parkingArea id="pa-890559137#0" lane="-890559137#0_0" roadsideCapacity="9" length="5"/>
    <parkingArea id="pa-890559137#1" lane="-890559137#1_0" roadsideCapacity="3" length="5"/>
    <parkingArea id="pa-890559138" lane="-890559138_0" roadsideCapacity="22" length="5"/>
    <parkingArea id="pa-890738229#0" lane="-890738229#0_0" roadsideCapacity="48" length="5"/>
    <parkingArea id="pa-890738229#1" lane="-890738229#1_0" roadsideCapacity="25" length="5"/>
    <parkingArea id="pa-890738229#2" lane="-890738229#2_0" roadsideCapacity="24" length="5"/>
    <parkingArea id="pa-90743683#0" lane="-90743683#0_0" roadsideCapacity="10" length="5"/>
    <parkingArea id="pa-90743683#1" lane="-90743683#1_0" roadsideCapacity="12" length="5"/>
    <parkingArea id="pa-90743683#2" lane="-90743683#2_0" roadsideCapacity="9" length="5"/>
    <parkingArea id="pa-90743683#3" lane="-90743683#3_0" roadsideCapacity="14" length="5"/>
    <parkingArea id="pa1013410328" lane="1013410328_0" roadsideCapacity="1" length="5"/>
    <parkingArea id="pa1013410330" lane="1013410330_0" roadsideCapacity="3" length="5"/>
    <parkingArea id="pa1013410331" lane="1013410331_0" roadsideCapacity="1" length="5"/>
    <parkingArea id="pa1046248579" lane="1046248579_0" roadsideCapacity="133" length="5"/>
    <parkingArea id="pa1081222347" lane="1081222347_0" roadsideCapacity="29" length="5"/>
    <parkingArea id="pa1388130322" lane="1388130322_0" roadsideCapacity="13" length="5"/>
    <parkingArea id="pa1388130333#0" lane="1388130333#0_0" roadsideCapacity="8" length="5"/>
    <parkingArea id="pa1388130333#1" lane="1388130333#1_0" roadsideCapacity="7" length="5"/>
    <parkingArea id="pa1388130337#1" lane="1388130337#1_0" roadsideCapacity="5" length="5"/>
    <parkingArea id="pa1388130338#1" lane="1388130338#1_0" roadsideCapacity="4" length="5"/>
    <parkingArea id="pa1388130338#2" lane="1388130338#2_0" roadsideCapacity="7" length="5"/>
    <parkingArea id="pa1388130339#1" lane="1388130339#1_0" roadsideCapacity="5" length="5"/>
    <parkingArea id="pa1388130340#1" lane="1388130340#1_0" roadsideCapacity="2" length="5"/>
    <parkingArea id="pa1388130340#2" lane="1388130340#2_0" roadsideCapacity="16" length="5"/>
    <parkingArea id="pa1388130341#3" lane="1388130341#3_0" roadsideCapacity="18" length="5"/>
    <parkingArea id="pa1388130341#4" lane="1388130341#4_0" roadsideCapacity="1" length="5"/>
    <parkingArea id="pa1388130348#0" lane="1388130348#0_0" roadsideCapacity="1" length="5"/>
    <parkingArea id="pa1388130348#1" lane="1388130348#1_0" roadsideCapacity="2" length="5"/>
    <parkingArea id="pa1388130349#1" lane="1388130349#1_0" roadsideCapacity="2" length="5"/>
    <parkingArea id="pa1388130349#2" lane="1388130349#2_0" roadsideCapacity="22" length="5"/>
    <parkingArea id="pa1388130353" lane="1388130353_0" roadsideCapacity="22" length="5"/>
    <parkingArea id="pa1388130354#0" lane="1388130354#0_0" roadsideCapacity="2" length="5"/>
    <parkingArea id="pa1388130354#1" lane="1388130354#1_0" roadsideCapacity="9" length="5"/>
    <parkingArea id="pa1388130354#2" lane="1388130354#2_0" roadsideCapacity="5" length="5"/>
    <parkingArea id="pa1388130354#5" lane="1388130354#5_0" roadsideCapacity="3" length="5"/>
    <parkingArea id="pa1388130354#6" lane="1388130354#6_0" roadsideCapacity="1" length="5"/>
    <parkingArea id="pa147379106#0" lane="147379106#0_0" roadsideCapacity="25" length="5"/>
    <parkingArea id="pa147379106#1" lane="147379106#1_0" roadsideCapacity="24" length="5"/>
    <parkingArea id="pa147379106#2" lane="147379106#2_0" roadsideCapacity="19" length="5"/>
    <parkingArea id="pa147379107#0" lane="147379107#0_0" roadsideCapacity="24" length="5"/>
    <parkingArea id="pa147379107#1" lane="147379107#1_0" roadsideCapacity="25" length="5"/>
    <parkingArea id="pa147379107#2" lane="147379107#2_0" roadsideCapacity="22" length="5"/>
    <parkingArea id="pa147379116#0" lane="147379116#0_0" roadsideCapacity="4" length="5"/>
    <parkingArea id="pa147379116#2" lane="147379116#2_0" roadsideCapacity="14" length="5"/>
    <parkingArea id="pa147379116#3" lane="147379116#3_0" roadsideCapacity="4" length="5"/>
    <parkingArea id="pa147379116#4" lane="147379116#4_0" roadsideCapacity="136" length="5"/>
    <parkingArea id="pa147379501" lane="147379501_0" roadsideCapacity="13" length="5"/>
    <parkingArea id="pa147419849#0" lane="147419849#0_0" roadsideCapacity="172" length="5"/>
    <parkingArea id="pa147419849#1" lane="147419849#1_0" roadsideCapacity="10" length="5"/>
    <parkingArea id="pa147419849#2" lane="147419849#2_0" roadsideCapacity="9" length="5"/>
    <parkingArea id="pa147419849#3" lane="147419849#3_0" roadsideCapacity="10" length="5"/>
    <parkingArea id="pa147419849#4" lane="147419849#4_0" roadsideCapacity="10" length="5"/>
    <parkingArea id="pa147419849#5" lane="147419849#5_0" roadsideCapacity="10" length="5"/>
    <parkingArea id="pa147419849#6" lane="147419849#6_0" roadsideCapacity="10" length="5"/>
    <parkingArea id="pa147419849#7" lane="147419849#7_0" roadsideCapacity="9" length="5"/>
    <parkingArea id="pa147419849#8" lane="147419849#8_0" roadsideCapacity="10" length="5"/>
    <parkingArea id="pa179051712#0" lane="179051712#0_0" roadsideCapacity="12" length="5"/>
    <parkingArea id="pa179051712#1" lane="179051712#1_0" roadsideCapacity="26" length="5"/>
    <parkingArea id="pa179051712#2" lane="179051712#2_0" roadsideCapacity="26" length="5"/>
    <parkingArea id="pa179051712#3" lane="179051712#3_0" roadsideCapacity="6" length="5"/>
    <parkingArea id="pa179051712#4" lane="179051712#4_0" roadsideCapacity="9" length="5"/>
    <parkingArea id="pa183876531#0" lane="183876531#0_0" roadsideCapacity="1" length="5"/>
    <parkingArea id="pa183876531#1" lane="183876531#1_0" roadsideCapacity="4" length="5"/>
    <parkingArea id="pa183876531#2" lane="183876531#2_0" roadsideCapacity="3" length="5"/>
    <parkingArea id="pa183876531#3" lane="183876531#3_0" roadsideCapacity="4" length="5"/>
    <parkingArea id="pa183876531#4" lane="183876531#4_0" roadsideCapacity="3" length="5"/>
    <parkingArea id="pa183876531#6" lane="183876531#6_0" roadsideCapacity="7" length="5"/>
    <parkingArea id="pa183876531#7" lane="183876531#7_0" roadsideCapacity="15" length="5"/>
    <parkingArea id="pa223126919#0" lane="223126919#0_0" roadsideCapacity="25" length="5"/>
    <parkingArea id="pa223126919#1" lane="223126919#1_0" roadsideCapacity="25" length="5"/>
    <parkingArea id="pa223126919#2" lane="223126919#2_0" roadsideCapacity="20" length="5"/>
    <parkingArea id="pa237036477#1" lane="237036477#1_0" roadsideCapacity="2" length="5"/>
    <parkingArea id="pa237036477#10" lane="237036477#10_0" roadsideCapacity="1" length="5"/>
    <parkingArea id="pa237036477#12" lane="237036477#12_0" roadsideCapacity="1" length="5"/>
    <parkingArea id="pa237036477#13" lane="237036477#13_0" roadsideCapacity="3" length="5"/>
    <parkingArea id="pa237036477#14" lane="237036477#14_0" roadsideCapacity="3" length="5"/>
    <parkingArea id="pa237036477#15" lane="237036477#15_0" roadsideCapacity="3" length="5"/>
    <parkingArea id="pa237036477#16" lane="237036477#16_0" roadsideCapacity="1" length="5"/>
    <parkingArea id="pa237036477#18" lane="237036477#18_0" roadsideCapacity="9" length="5"/>
    <parkingArea id="pa237036477#19" lane="237036477#19_0" roadsideCapacity="3" length="5"/>
    <parkingArea id="pa237036477#2" lane="237036477#2_0" roadsideCapacity="7" length="5"/>
    <parkingArea id="pa237036477#22" lane="237036477#22_0" roadsideCapacity="2" length="5"/>
    <parkingArea id="pa237036477#23" lane="237036477#23_0" roadsideCapacity="4" length="5"/>
    <parkingArea id="pa237036477#24" lane="237036477#24_0" roadsideCapacity="5" length="5"/>
    <parkingArea id="pa237036477#4" lane="237036477#4_0" roadsideCapacity="5" length="5"/>
    <parkingArea id="pa237036477#7" lane="237036477#7_0" roadsideCapacity="2" length="5"/>
    <parkingArea id="pa237036477#8" lane="237036477#8_0" roadsideCapacity="2" length="5"/>
    <parkingArea id="pa260759772" lane="260759772_0" roadsideCapacity="4" length="5"/>
    <parkingArea id="pa260761733#0" lane="260761733#0_0" roadsideCapacity="6" length="5"/>
    <parkingArea id="pa260761733#1" lane="260761733#1_0" roadsideCapacity="16" length="5"/>
    <parkingArea id="pa260761733#1-AddedOnRampEdge" lane="260761733#1-AddedOnRampEdge_0" roadsideCapacity="15" length="5"/>
    <parkingArea id="pa260761733#2" lane="260761733#2_0" roadsideCapacity="11" length="5"/>
    <parkingArea id="pa260761733#3" lane="260761733#3_0" roadsideCapacity="29" length="5"/>
    <parkingArea id="pa260761733#4" lane="260761733#4_0" roadsideCapacity="9" length="5"/>
    <parkingArea id="pa260761733#5" lane="260761733#5_0" roadsideCapacity="1" length="5"/>
    <parkingArea id="pa264904736" lane="264904736_0" roadsideCapacity="12" length="5"/>
    <parkingArea id="pa269853395#0" lane="269853395#0_0" roadsideCapacity="3" length="5"/>
    <parkingArea id="pa269853395#1" lane="269853395#1_0" roadsideCapacity="7" length="5"/>
    <parkingArea id="pa269853395#2" lane="269853395#2_0" roadsideCapacity="3" length="5"/>
    <parkingArea id="pa278132384#0" lane="278132384#0_0" roadsideCapacity="7" length="5"/>
    <parkingArea id="pa278132384#1" lane="278132384#1_0" roadsideCapacity="17" length="5"/>
    <parkingArea id="pa278132384#2" lane="278132384#2_0" roadsideCapacity="12" length="5"/>
    <parkingArea id="pa278132384#3" lane="278132384#3_0" roadsideCapacity="12" length="5"/>
    <parkingArea id="pa329703619#0" lane="329703619#0_0" roadsideCapacity="16" length="5"/>
    <parkingArea id="pa329703619#1" lane="329703619#1_0" roadsideCapacity="13" length="5"/>
    <parkingArea id="pa329703619#3" lane="329703619#3_0" roadsideCapacity="9" length="5"/>
    <parkingArea id="pa329703619#4" lane="329703619#4_0" roadsideCapacity="3" length="5"/>
    <parkingArea id="pa329703619#5" lane="329703619#5_0" roadsideCapacity="2" length="5"/>
    <parkingArea id="pa329703619#6" lane="329703619#6_0" roadsideCapacity="8" length="5"/>
    <parkingArea id="pa329703619#7" lane="329703619#7_0" roadsideCapacity="8" length="5"/>
    <parkingArea id="pa329703620#0" lane="329703620#0_0" roadsideCapacity="7" length="5"/>
    <parkingArea id="pa329703620#1" lane="329703620#1_0" roadsideCapacity="8" length="5"/>
    <parkingArea id="pa329703620#2" lane="329703620#2_0" roadsideCapacity="2" length="5"/>
    <parkingArea id="pa329703620#3" lane="329703620#3_0" roadsideCapacity="2" length="5"/>
    <parkingArea id="pa329703620#4" lane="329703620#4_0" roadsideCapacity="9" length="5"/>
    <parkingArea id="pa329703620#5" lane="329703620#5_0" roadsideCapacity="13" length="5"/>
    <parkingArea id="pa329703620#7" lane="329703620#7_0" roadsideCapacity="15" length="5"/>
    <parkingArea id="pa329703621#0" lane="329703621#0_0" roadsideCapacity="3" length="5"/>
    <parkingArea id="pa329703621#1" lane="329703621#1_0" roadsideCapacity="10" length="5"/>
    <parkingArea id="pa329703621#2" lane="329703621#2_0" roadsideCapacity="9" length="5"/>
    <parkingArea id="pa329703621#3" lane="329703621#3_0" roadsideCapacity="11" length="5"/>