<?xml version="1.0" encoding="UTF-8"?>

<!-- generated on 2025-06-13 12:39:04.756000 by randomTrips.py UNKNOWN
<configuration>
    <net-file value="unicamp_routine/osm.net.xml"/>
    <route-file value="unicamp_routine/randtrips_pedestrians.rou.xml"/>
    <pedestrians value="True"/>
    <validate value="True"/>
    <end value="2000.0"/>
    <period value="1.0"/>
</configuration>
-->

<!-- generated on 2025-06-13 12:39:02 by Eclipse SUMO duarouter Version 1.23.1
<duarouterConfiguration xmlns:xsi="http://www.w3.org/2001/XMLSchema-instance" xsi:noNamespaceSchemaLocation="http://sumo.dlr.de/xsd/duarouterConfiguration.xsd">

    <input>
        <net-file value="unicamp_routine/osm.net.xml"/>
        <route-files value="trips.trips.xml"/>
    </input>

    <output>
        <output-file value="unicamp_routine/randtrips_pedestrians.rou.xml"/>
        <alternatives-output value="NUL"/>
    </output>

    <time>
        <begin value="0"/>
        <end value="2000.0"/>
    </time>

    <report>
        <no-warnings value="true"/>
        <ignore-errors value="true"/>
        <no-step-log value="true"/>
    </report>

</duarouterConfiguration>
-->

<routes xmlns:xsi="http://www.w3.org/2001/XMLSchema-instance" xsi:noNamespaceSchemaLocation="http://sumo.dlr.de/xsd/routes_file.xsd">
    <person id="0" depart="0.00">
        <walk edges="664980266 447326322#3 1388130355 535558320#2 535558320#3 535558320#4 535558320#5 1388130353 72508818 447326319#4 447326319#3 447326319#2 447326319#1 -447326319#0 -183876531#0 -183876531#1 183876531#2 -183876531#3"/>
    </person>
    <person id="1" depart="1.00">
        <walk edges="-970573855 1388130354#2 1388130354#3 1388130354#4 1388130354#5 1388130354#6 535558320#0 535558320#1 -1388130355 -329703621#8 329703621#7 329703621#6 -329703621#5 278132384#1 278132384#0 75701374#4 75701374#5 75701374#6 75701374#7 75701374#8 1388130344 329703619#0 1013410331 906065938 693637406#16 693637406#15 75679333#1 75679333#2 563505769#4 563505769#3 563505769#2 -563505769#1 563505769#0 1388130339#1 75701372#0 75701372#1 834865326#2 -834865326#1"/>
    </person>
    <person id="2" depart="2.00">
        <walk edges="75259400#2 -75259400#3 -75259400#4 75259406#1 75259405#5 72644726#0 70200195#6 70200195#7 70200195#8 70200195#9 70200195#10 70200195#11 89478571#2 89478571#1 890556455#1 -179051712#0 -179051712#1 70200199#6 -333333538 70200192#6"/>
    </person>
    <person id="3" depart="3.00">
        <walk edges="850123267#1 -850123267#0 1388130354#3 1388130354#4 1388130354#5 1388130354#6 535558320#0 535558320#1 535558320#2 535558320#3 -1388130352 447326322#0 906049246 75679256#10 75679256#9 75679256#8 1106471679 237036477#7 237036477#8 237036477#10 237036477#11 75679337#0 75679337#1 1106471668#0 563505769#14 563505769#13 -887737027 -562047759#1"/>
    </person>
    <person id="4" depart="4.00">
        <walk edges="179051712#0 890556454 889999537#0 89478571#8 89478571#7 970796640#0 76845625#2 76845625#1 76845625#0 1388130338#2 1388130330#0 1388130329#2 1388130329#1 1270064851#0 1270064851#1 1270064851#2 1388130327#2 1388130328 72508815#1 75679333#8 75679333#7 75679333#6 75679333#5 1106471674#0 75679333#2 75679333#1 693637406#15 693637406#16 906065938 1013410331 329703619#0 -1388130344 75701374#8 75701374#7 75701374#6 75701374#5 75701374#4 -278132384#0 278132384#1 -278132384#2"/>
    </person>
    <person id="5" depart="5.00">
        <walk edges="-834865321 834865323#1 834865323#2 1388130339#1 563505768#1 563505768#2 693637406#1 470718565#0 470718565#1 470718565#2 1238886361 470718564#8"/>
    </person>
    <person id="6" depart="6.00">
        <walk edges="-183876531#7 75679292#2 890559265#0 890559265#1 890559265#2 890559265#3 75679284#0 693637326#0 269853395#2 693637327#1 693637327#2 889999537#0 889999537#1 89478571#0 89478571#1 89478571#2 70200195#11 70200195#10 70200195#9 -75413339#4 75413339#3 -75413339#2"/>
    </person>
    <person id="7" depart="7.00">
        <walk edges="692055283 692055282#1 237036477#14 237036477#13 237036477#12 75679337#0 75679337#1 1106471668#0 75679337#4 75679337#5 72508815#5 72508815#6 72508815#7 72508815#8 72508815#9 72508815#11 1270062933#1 1270062933#0 1270062931#2 1270062935 75679319#3 537025694#0 537025695#3 537025695#4"/>
    </person>
    <person id="8" depart="8.00">
        <walk edges="-834865323#1 834865323#2 -563505769#0 75679325#1 1106471685#0 1106471685#1 77674945#1 77674945#2 77674945#3 77674945#4 77674920#2 562047771"/>
    </person>
    <person id="9" depart="9.00">
        <walk edges="762314423#0 970567107 841330480 535558320#1 535558320#2 535558320#3 535558320#4 535558320#5 1388130353 72508818 447326319#4 447326319#3 1388104151#0 1388104151#1 -1388104151#1"/>
    </person>
    <person id="10" depart="10.00">
        <walk edges="75701376#2 75701376#1 75701376#0 535556337#6 329703619#7 329703619#6 329703619#5 329703619#4 329703619#3 329703619#1 329703619#0 1013410331 906065938 693637406#16 693637406#15 72508573#2"/>
    </person>
    <person id="11" depart="11.00">
        <walk edges="1270062935 1270062931#2 1270062933#0 1270062933#1 72508815#12 95015368#0 95015368#1 1388130325 95015344#1 95015344#2 95015344#3 95015344#4 95015344#5 95015353#1 95015353#0 75679328#1 75679328#2 87197734 889999539 89478572#0 89478572#1 89478572#2 89478572#3 89478572#4 147419849#8 72508571#0 72508571#1 -72508571#2"/>
    </person>
    <person id="12" depart="12.00">
        <walk edges="95015360#1 95015360#0 75679316#1 1270062931#0 1270062931#1"/>
    </person>
    <person id="13" depart="13.00">
        <walk edges="-562047769#1 562047771 -77674920#2 77674945#4 77674945#3 77674945#2 77674945#1 1106471685#1 72508573#4 -538104546#1 538104546#0 -563505769#2 -563505769#3 563505769#4 -563505769#6 -563505769#7 -563505769#8 -563505769#11 -563505769#13 1106471668#2 -563505769#16 -563505769#17 563505769#18 -563505766#1 75679309#1 -447326319#3 -562047787"/>
    </person>
    <person id="14" depart="14.00">
        <walk edges="77674950#6 77674936#0 77674936#1 77674936#2 77674947#4 470718570#3 470718570#2 470718570#1 470718570#0 470718565#0 693637406#1 563505768#2 563505768#1 1106471673#1 72508816#5 72508816#4 72508816#2 72508816#1 889992192 72508815#0 72508815#1 75679333#8 75679333#7 562096876"/>
    </person>
    <person id="15" depart="15.00">
        <walk edges="75701376#4 -75701376#4 -75701376#5 -75701376#6 -75701376#7 535723603#0 535723603#1 535723603#2 77674950#0 77674950#1 77674950#2 77674950#4 77674950#5 77674950#6 77674950#7 77674950#8 75413340#1 447326496#0 447326496#1 447326496#2 1106471699 72644725#4"/>
    </person>
    <person id="16" depart="16.00">
        <walk edges="535723606 -75701376#7 535723603#0 535723603#1 535723603#2 77674950#0 77674950#1 77674950#2 77674950#4 769466394#4 769466394#3 769466394#2 769466394#1 -410036320#0 410036320#1 -410036320#2 970568634 970568636#0 970568636#1"/>
    </person>
    <person id="17" depart="17.00">
        <walk edges="1364844410#1 693637406#16 906065938 1013410331 329703619#0 -1388130344 75701374#8 75701374#7 75701374#6 75701374#5 75701374#4 75701374#3 -537228182#0 537228182#1 537228185 537228183#2 537228183#3"/>
    </person>
    <person id="18" depart="18.00">
        <walk edges="77674932#1 77674932#2 970810524 362639206 77674947#2 983088352 470718564#4 470718571#2 470718571#1 470718571#0 470718570#0 470718565#0 693637406#1 563505768#2 563505768#1 -1388130339#1 -563505769#0 -563505769#1 563505769#2"/>
    </person>
    <person id="19" depart="19.00">
        <walk edges="77875607 887737024 535725903#0 769466394#10 952984038#0 952984038#1 952984038#2 -75701376#7 75701376#6 75701376#5 75701376#4 -75701376#3 75701376#2 75701376#1 75701376#0 535556337#6 329703619#7 -1388130347 329703620#1 329703620#2 -329703621#0 -329703621#1 562047747"/>
    </person>
    <person id="20" depart="20.00">
        <walk edges="72508815#2 75679333#8 75679333#7 75679333#6 75679333#5 1106471674#0 75679333#2 75679333#1 693637406#15 1364844410#1 1364844412#1 260761733#3 260761733#2 260761733#1 260761733#1-AddedOnRampEdge 260761733#0 535723603#0 952984038#2 887737022 -535723605#0 535723605#1 -535723605#1"/>
    </person>
    <person id="21" depart="21.00">
        <walk edges="-562047743#0 75701374#5 75701374#4 -278132384#0 278132384#1 -329703621#5 -329703621#6 -329703621#7 -329703621#8 1388130355 535558320#1 841330480 970567107 -841330477#1"/>
    </person>
    <person id="22" depart="22.00">
        <walk edges="-562096867#3 562096867#0 -970642627"/>
    </person>
    <person id="23" depart="23.00">
        <walk edges="664950508#3 -664950508#2 -664950508#1 -664950508#0 -664950501#1 -850495241#1 850495240 535558322#1 1388130354#0 1388130354#1 1388130354#2 1388130354#3 1388130354#4 1388130354#5 1388130354#6 535558320#0 535558320#1 535558320#2 535558320#3 -1388130352 447326322#0 906049246 75679256#10 95011158 237036477#2 237036477#1 237036477#0 -563505767#1 75679307#4 1294814198 1294814199#0 1294814199#1 1294814197#1 1294814197#0"/>
    </person>
    <person id="24" depart="24.00">
        <walk edges="1294814203#0 1294814202 1294814199#1 1294814199#0 1294814198 75679307#4 563505769#18 563505769#17 -563505769#16 563505769#14 563505769#13 563505769#11 563505769#8 563505769#7 563505769#6 563505769#4 563505769#3 563505769#2 538104546#0 -538104546#1 72508573#4 1106471685#1 77674945#1 77674945#2 77674945#3 77674945#4 77674920#2 -77674920#1"/>
    </person>
    <person id="25" depart="25.00">
        <walk edges="-90743683#3 -75413343#2 -75413343#1 -75413343#0 72644725#4 1106471699 447326496#3 77674947#0 77674947#1 77674947#2 983088352 470718564#4 470718564#3 470718564#2 470718570#2 470718563#1 470718563#0 983088351 77674938#2 693637406#7 693637406#10 693637406#11 940592698"/>
    </person>
    <person id="26" depart="26.00">
        <walk edges="692055278 237036477#14 237036477#15 237036477#16 237036477#17 237036477#18 237036477#19 237036477#20 237036477#21 237036477#22 237036477#23 237036477#24 1013410329 72508573#0 1364844413 72508573#2 72508573#3 72508573#4 1106471685#1 693637406#7 72508573#10 72508573#11 1106471687 693637406#2 693637406#1 72508573#13 693637397#1 89478572#9 889999539 89478572#0 89478572#1 89478572#2 72644721#0 72644721#1 -72644721#2 -72644721#3 -72644721#4 -72644721#5 563505734#4"/>
    </person>
    <person id="27" depart="27.00">
        <walk edges="-72644721#7 -72644721#6 72644721#5 72644721#4 72644721#3 72644721#2 72644721#1 72644721#0 89478572#3 89478572#4 89478572#5 72644725#0 1239120002#0 72644725#2 72644725#3"/>
    </person>
    <person id="28" depart="28.00">
        <walk edges="-72644044#0 70056689#6 70056689#5 70056689#4 70056689#3 70056689#2 70056689#1 70056689#0 89478571#1 89478571#0 889999537#1 889999537#0 89478571#8 89478571#7 970796640#0 76845625#2 76845625#1 76845625#0 1388130338#2 1388130330#0 1388130329#2 1388130329#1 1270064851#0 1270064851#1 1270064851#2 1388130327#2 1388130328 72508815#1 75679333#8 75679333#7 75679333#6 75679333#5 1106471674#0 75679333#2 75679333#1 693637406#15 1364844410#1 1364844412#1"/>
    </person>
    <person id="29" depart="29.00">
        <walk edges="970819175 72508816#2 72508816#1 95015370#1 95015370#0 95015344#7 95015344#8 95015344#9 95015344#10 95015344#11 95015338#1 95015338#0 75679307#1 1294814203#1 1294814203#0 1294814202 1294814199#1 1294814199#0 1294814198 75679307#4 563505767#1 237036477#0 237036477#1 237036477#2 95011158 75679256#10 906049246 447326322#0 1388130352 535558320#3 665220625"/>
    </person>
    <person id="30" depart="30.00">
        <walk edges="537232376 260761733#2 260761733#3 1364844412#1 1364844410#1 693637406#15 75679333#1 75679333#2 1106471674#0 75679333#5 75679333#6 75679333#7 75679333#8 72508815#1 1388130328 1388130327#2 1270064851#2 1270064851#1 1270064851#0 1388130329#1 1388130329#2 1388130330#0 1388130338#2 76845625#0 76845625#1 76845625#2 970796640#0 89478571#7 89478571#8 889999537#0 890556454 147379501 70200197#1"/>
    </person>
    <person id="31" depart="31.00">
        <walk edges="77674947#3 77674947#2 77674947#1 77674947#0 447326496#4 447326496#5 89478572#7 75679299#0"/>
    </person>
    <person id="32" depart="32.00">
        <walk edges="-841177016 -562047737 -841177017 237036477#5 562096883 75679256#9 75679256#10 906049246 1388130348#0 1388130348#1 1388130349#1 1388130349#2 75701374#1 697010966 278132384#1 329703621#4 -329703621#3"/>
    </person>
    <person id="33" depart="33.00">
        <walk edges="1106471683 77709896#0 693637406#16 693637406#15 72508573#2 72508573#3 72508573#4 1106471685#1 1252072498 77674942#2 77674942#1 77674942#0 538031522#0 538031522#1 769466394#4 77873286#1 940593290 -940593290"/>
    </person>
    <person id="34" depart="34.00">
        <walk edges="-834653995#0 -834653994 -889486572 -889486573 -563505769#3 1106471674#3 75679333#5 75679333#6 75679333#7 75679333#8 72508815#2 95015378#0 95015378#1 95015344#10 95015344#11 95015344#12 95015344#13 95015344#14 95015344#15 95015344#1"/>
    </person>
    <person id="35" depart="35.00">
        <walk edges="834865326#0 -834865326#0 834865325 -834865321 834865323#1 834865323#2 -563505769#0 -563505769#1 -563505769#2 -563505769#3 563505769#4 -563505769#6 -563505769#7 -563505769#8 75679335#4 1106471682#0"/>
    </person>
    <person id="36" depart="36.00">
        <walk edges="693637327#1 269853395#1 269853395#0 89478571#7 970796640#0 76845625#2 76845625#1 76845625#0 1388130338#2 1388130330#0 1388130329#2 1388130329#1 1270064851#0 95015353#0 1388130333#1 72508816#1 72508816#2 72508816#4 72508816#5 1106471673#1 1388130339#1"/>
    </person>
    <person id="37" depart="37.00">
        <walk edges="889993136#0 889993137 329703620#4 329703620#3 329703620#2 329703620#1"/>
    </person>
    <person id="38" depart="38.00">
        <walk edges="-906049840 535558320#5 75679244 75679256#10 75679256#9 75679256#8 1106471679 237036477#7 237036477#8 237036477#10 237036477#11 75679337#0 75679337#1 1106471668#0 563505769#14 563505769#13 -887737027"/>
    </person>
    <person id="39" depart="39.00">
        <walk edges="537243164 535556339#3 535556339#2 535556339#1 535556339#0 535556337#7 535556337#6 329703619#7 329703619#6 329703619#5 329703619#4 329703619#3 329703619#1 329703619#0 1013410331 906065938 693637406#16 693637406#15 75679333#1 75679333#2 -563505769#6 -890763400#1"/>
    </person>
    <person id="40" depart="40.00">
        <walk edges="562047762#1 447326049#1 75679309#1 -447326319#3 -447326319#4 72508818 1388130353 535558320#5 535558320#4 535558320#3 535558320#2 535558320#1 535558320#0 1388130354#6 1388130354#5 1388130354#4 1388130354#3 1388130354#2 1388130354#1 1388130354#0 535558322#1 535558322#0 447326323#1 447326323#0 535371826 850890050#0 850890050#1"/>
    </person>
    <person id="41" depart="41.00">
        <walk edges="1388130344 329703619#0 1013410331 906065938 693637406#16 693637406#15 75679333#1 75679333#2 563505769#4 563505769#3 563505769#2 -563505769#1 563505769#0 834865323#2 -834865322"/>
    </person>
    <person id="42" depart="42.00">
        <walk edges="973937900 890763400#1 563505769#6 563505769#4 563505769#3 563505769#2 -563505769#1 563505769#0 1388130339#1 563505768#1 563505768#2 693637406#1 470718565#0 470718564#10 470718564#9 470718566"/>
    </person>
    <person id="43" depart="43.00">
        <walk edges="-562047765#1 77674945#2 77674945#3 77674945#4 77674945#5 77674945#6 77674945#7 77674945#8 77674950#0 535723603#3 952984038#0 535723604 -535723605#0 535723605#1 535723605#2 -535723605#3"/>
    </person>
    <person id="44" depart="44.00">
        <walk edges="-563505734#2 -563505734#3 72644721#5 72644721#4 72644721#3 72644721#2 72644721#1 72644721#0 89478572#2 89478572#1 89478572#0 889999539 87197734 -75679328#2 -75679328#1 95015353#0 95015353#1 95015344#6 95015344#7 95015344#8 95015344#9 95015344#10 95015344#11 95015344#12 95015355#1 95015355#0 447326049#11 447326049#10 447326049#9 447326049#8 447326049#7 1294814175#1 1294814176#0 1294814176#1 1294814177 447326049#4 447326049#3 447326049#2 447326049#1 75679309#1 447326319#2 564166313#1 564166315#1"/>
    </person>
    <person id="45" depart="45.00">
        <walk edges="75679335#4 75679335#1 95015378#0 95015378#1 95015344#10 95015344#11 95015344#12 95015344#13 95015344#14 95015344#15 95015344#1 95015344#2 95015367#0 95015367#1 1388652261 1270064853#1 1388130338#1 76845625#0 76845625#1 76845625#2 970796640#0 89478571#7 89478571#8 889999537#0 890556454 179051712#0"/>
    </person>
    <person id="46" depart="46.00">
        <walk edges="-537232374#0 -537232374#1 -537232375 260761733#3 1364844412#1 1364844410#1 693637406#15 75679333#1 75679333#2 -563505769#6 -563505769#7 -563505769#8 -563505769#11 -563505769#13 1106471668#2 -563505769#16 -563505769#17 563505769#18 -563505766#1 75679309#1 1388104151#0 1388104151#1 1388104151#2"/>
    </person>
    <person id="47" depart="47.00">
        <walk edges="973906928#2 1106471671 1106471672#3 1106471672#2 1106471672#1 386834060#12 386834060#11 386834060#9 386834060#8 386834060#7 278132384#3 278132384#2 -329703621#5 -329703621#6 -329703621#7 -329703621#8 1388130355 535558320#2"/>
    </person>
    <person id="48" depart="48.00">
        <walk edges="970568634 -410036320#2 410036320#1 -410036320#0 769466394#1 769466394#2 769466394#3 769466394#4 77674950#4 769466394#7 769466394#8 77875431#2"/>
    </person>
    <person id="49" depart="49.00">
        <walk edges="-1388130341#0 386834060#7 386834060#8 386834060#9 386834060#11 386834060#12 386834060#13 535556337#4 329703620#0 329703620#1 329703620#2 329703620#3 329703620#4 329703620#5 1388130344 329703619#0 1013410331 906065938 693637406#16 693637406#15 75679333#1 75679333#2 1106471674#0 75679333#5 75679333#6 75679333#7 75679333#8 72508815#1 1388130328 1388130327#2 1270064851#2 1270064851#1 1270064851#0 1388130329#1 1388130329#2 1388130330#0 1388130338#2 76845625#0 76845625#1 76845625#2 970796640#0 89478571#7 89478571#8 889999537#0 889999537#1 89478571#0 89478571#1 89478571#2 70200195#11 70200195#10 70200195#9 70200195#8 70200195#7 70200195#6 70200195#5 70200195#4 70200195#3 70200195#2 70200195#1 -72644044#2 72644044#2"/>
    </person>
    <person id="50" depart="50.00">
        <walk edges="70200195#5 -75259406#0 -75259406#1 -75259406#2 72644721#2 72644721#1 72644721#0 89478572#3 89478572#4 89478572#5 72644725#0 1239120002#0 72644725#2 72644725#3 1106471699 447326496#2 447326496#1 447326496#0 75413340#1 77674950#8 77674950#7 77674950#6 77674950#5 77674950#4 769466394#7 769466394#8 535725903#0"/>
    </person>
    <person id="51" depart="51.00">
        <walk edges="-563505767#1 237036477#0 237036477#1 237036477#2 237036477#4 237036477#5 237036477#6 237036477#7 237036477#8 237036477#10 237036477#11 237036477#12 237036477#13 237036477#14 237036477#15 237036477#16 237036477#17 237036477#18"/>
    </person>
    <person id="52" depart="52.00">
        <walk edges="278132384#3 278132384#2 278132384#1 278132384#0 75701374#4 75701374#5 75701374#6 75701374#7 75701374#8 1388130344 329703619#0 1013410331 906065938 693637406#16 693637406#15 75679333#1 75679333#2 1106471674#0 75679333#5 75679333#6 75679333#7 75679333#8 72508815#1 1388130328 1388130327#2 1270064851#2 1270064851#1 95015353#1"/>
    </person>
    <person id="53" depart="53.00">
        <walk edges="834865325 -834865321 834865323#1 834865323#2 -563505769#0 -563505769#1 -563505769#2 -563505769#3 563505769#4 -563505769#6 -890763401#1"/>
    </person>
    <person id="54" depart="54.00">
        <walk edges="470718564#10 470718565#0 693637406#1 72508573#13 693637397#1 89478572#9 889999539 77709899#0 1106471701#1 1106471701#0 -70080981#2 -75259400#7 75259400#6 -75259400#5"/>
    </person>
    <person id="55" depart="55.00">
        <walk edges="889514582 537282071#1 -75701376#3 -75701376#4 -75701376#5 -75701376#6 -75701376#7 535723603#0 535723603#1 535723603#2 77674950#0 77674950#1 77674950#2 77674950#4 769466394#4 769466394#3 834865316"/>
    </person>
    <person id="56" depart="56.00">
        <walk edges="-973937902#1 -973937902#0 -973429470#0 -562096858#0 77674922#2 77674922#1 77674924 889486571#1 77674942#0 1106471689 77674938#3 77674938#2 72508573#10 554964379 563505768#1 1106471673#1 72508816#5 72508816#4 72508816#2 72508816#1 1388130333#1 95015353#0 1270064851#0 1388130329#1 1388130329#2 1388130330#0 1388130338#2 76845625#0 76845625#1 489446220#2 489446220#1 1244624343 75679319#0 75679319#1 -537025691#5 -537025691#3 -537025691#2 -537025691#1 -537025691#0 -890764407 -890559264#1 890559265#3 1254902089#0 1254902089#1 1254902089#2 -890559137#0 77712876#0 -664968457#1 664968457#1"/>
    </person>
    <person id="57" depart="57.00">
        <walk edges="563505734#4 72644721#5 72644721#4 -72641085#3 72641085#2 75259400#4 75259406#1 75259405#5 72644726#0 70200195#6 70200195#7 70200195#8 70200195#9 70200195#10 70200195#11 89478571#2 89478571#1 890556455#1 147379501 -890738229#2 -70200199#4"/>
    </person>
    <person id="58" depart="58.00">
        <walk edges="75413343#2 -75413329#1 -75413329#2 147419849#7 147419849#8 89478572#4 89478572#3 89478572#2 -70080981#3 1106471701#0 1106471701#1 77709899#1 562096865 75679359#1 75679359#2 1388130337#1 1388130338#2 76845625#0 76845625#1 489446220#2 489446220#1 1244624343 75679319#0 75679319#1 -537025691#5 537025691#3"/>
    </person>
    <person id="59" depart="59.00">
        <walk edges="75679307#4 563505767#1 237036477#0 237036477#1 237036477#2 95011158 75679256#10 906049246 447326322#0 1388130352 535558320#4"/>
    </person>
    <person id="60" depart="60.00">
        <walk edges="-147379107#1 147379107#1 147379107#0 -70200192#1 -70200192#2 -70200192#3 -70200192#4 890738229#1"/>
    </person>
    <person id="61" depart="61.00">
        <walk edges="834865328#0 -834865328#0 -834865327 563505769#11 563505769#8 563505769#7 563505769#6 563505769#4 563505769#3 563505769#2 -563505769#1 563505769#0 1388130339#1 563505768#1 563505768#2 693637406#1 470718565#0 470718570#0 470718570#1 470718570#2 470718570#3 77674947#4 77674936#2 77674936#1"/>
    </person>
    <person id="62" depart="62.00">
        <walk edges="1106471673#0 75701372#0 -1388130339#1 -563505769#0 -563505769#1 -563505769#2 -563505769#3 563505769#4 75679333#2 75679333#1 693637406#15 693637406#16 906065938 1013410331 329703619#0 -1388130344 75701374#8 75701374#7 75701374#6 75701374#5 75701374#4 75701374#3 -537228182#0"/>
    </person>
    <person id="63" depart="63.00">
        <walk edges="834865327 -834865327 -563505769#13 1106471668#2 75679337#4 75679337#5 95015356#0 95015356#1 95015344#11 95015344#12 95015344#13 95015344#14 95015344#15 95015344#1 95015344#2 95015344#3"/>
    </person>
    <person id="64" depart="64.00">
        <walk edges="-562047757 887728296 75701374#8 329703620#7 75679256#0 75679256#1 1106471682#1 1106471682#0 75679335#4 75679335#1 95015378#0 95015375#0 95015375#1 95015375#2 95015375#3 95015355#0 447326049#11 447326049#10 447326049#9"/>
    </person>
    <person id="65" depart="65.00">
        <walk edges="-537243163 535556339#2 -973906928#1 1106471671 1106471672#4 -75701376#1 -75701376#2 -75701376#3 -75701376#4 -75701376#5 -75701376#6 -75701376#7 535723603#0 535723603#1 535723603#2 77674950#0 77674950#1 77674950#2 77674950#4 77674950#5 77674950#6 77674950#7 77674950#8 75413340#1"/>
    </person>
    <person id="66" depart="66.00">
        <walk edges="75416306#5 75416306#4 75416306#3 75416306#2 75416306#1 75416306#0 89478572#4 89478572#5 89478572#6 89478572#7 75679299#0 1106471686 72508573#13 693637406#1 693637406#2 1106471687 72508573#11 72508573#10 693637406#7 1106471685#1 72508573#4 72508573#3 72508573#2 693637406#15 693637406#16 906065938 1013410331 329703619#0 -1388130344 329703620#5 329703620#4 329703620#3 329703620#2 329703620#1 329703620#0 535556337#4 386834060#13 386834060#12 386834060#11 386834060#9 386834060#8 386834060#7 386834059#5 386834059#7 535558321#0 -664950501#0 -664950501#1 -664950508#0 -664950508#1"/>
    </person>
    <person id="67" depart="67.00">
        <walk edges="386834060#9 386834060#8 386834060#7 278132384#3 278132384#2 278132384#1 697010966 -537228182#0 537228182#1 537228182#2 537228182#3"/>
    </person>
    <person id="68" depart="68.00">
        <walk edges="-90743683#0 90743683#0 147419849#6 147419849#7 147419849#8 89478572#4 89478572#3 89478572#2 89478572#1 89478572#0 889999539 87197734 -75679328#2 75701372#3 834865326#2 -834865326#1 834865325 834865321"/>
    </person>
    <person id="69" depart="69.00">
        <walk edges="179051712#2 179051712#1 -179051712#0 890556454 889999537#0 89478571#8 89478571#7 970796640#0 76845625#2 76845625#1 76845625#0 1388130338#2 1388130330#0 1388130329#2 1388130329#1 1270064851#0 1270064851#1 1270064851#2 1388130327#2 1388130328 72508815#1 75679333#8 75679333#7 75679333#6 75679333#5 1106471674#0 75679333#2 -834653997"/>
    </person>
    <person id="70" depart="70.00">
        <walk edges="537025691#3 537025691#5 75679319#1 75679319#0 1244624343 489446220#1 489446220#2 76845625#1 76845625#0 1388130338#2 1388130337#1 75679359#2 75679359#1 562096865 77709899#1 1106471701#1 1106471701#0 -70080981#3 89478572#2 89478572#3 89478572#4 89478572#5 72644725#0 1239120002#0 72644725#2 72644725#3 72644725#4"/>
    </person>
    <person id="71" depart="71.00">
        <walk edges="-75413343#1 -75413329#1 -75413329#2 147419849#7 147419849#8 89478572#4 89478572#3 89478572#2 89478572#1 89478572#0 889999539 87197734 -75679328#2 -75679328#1 95015353#0 95015353#1 95015344#6 95015344#7 95015344#8 95015344#9 95015344#10 95015344#11 95015344#12 95015344#13 95015374#1 95015374#0 75679312#2 75679312#1 1106471676#0"/>
    </person>
    <person id="72" depart="72.00">
        <walk edges="973906928#1 535556339#1 535556339#0 535556337#7 535556337#6 329703619#7 -1388130347 329703620#1 329703620#2 329703620#3 329703620#4 329703620#5 329703620#7 75679256#0 75679256#1 1106471682#1 237036477#21 237036477#20 237036477#19 237036477#18 237036477#17 237036477#16 692055282#0 692055283"/>
    </person>
    <person id="73" depart="73.00">
        <walk edges="237036477#23 237036477#22 1106471682#0 75679335#4 -563505769#11 -563505769#13 1106471668#2 -563505769#16 -563505769#17 563505769#18 75679307#4 1294814198 1294814199#0 1294814199#1 1294814202 1294814203#0 1294814204#1 1294814204#0 1294814189#1 1294814195#2 1294814195#1 1294814195#0 1294814190 476312122#2"/>
    </person>
    <person id="74" depart="74.00">
        <walk edges="-564166312#0 564166314#0 564166313#0 564166313#1 447326319#2 75679309#1 563505766#1 563505769#18 563505769#17 -563505769#16 563505769#14 563505769#13 -834865327 -834865328#0"/>
    </person>
    <person id="75" depart="75.00">
        <walk edges="1270062932 1270062931#0 75679316#1 95015360#0 95015360#1 95015344#14 95015344#13 95015344#12 95015344#11 95015344#10 95015344#9 95015344#8 95015371 1388130327#3 1388130328 72508815#0 269853393#1 269853393#0 75679325#1 1106471685#0 1106471685#1 77674945#1 77674945#2 77674945#3 77674945#4 77674920#2 -562047771 562047769#0"/>
    </person>
    <person id="76" depart="76.00">
        <walk edges="-841330467 841330467 1388130354#5 1388130354#6 535558320#0 535558320#1 -1388130355 -329703621#8 329703621#7 329703621#6 -329703621#5 278132384#1 278132384#0 75701374#4 75701374#5 75701374#6 75701374#7 75701374#8 1388130344 329703619#0 1013410331 906065938 693637406#16 693637406#15 75679333#1 75679333#2 563505769#4 563505769#3 563505769#2 -563505769#1 563505769#0 834865323#2 -834865323#1"/>
    </person>
    <person id="77" depart="77.00">
        <walk edges="-537282071#1 75701376#2 75701376#1 1106471672#4 1106471672#3 1106471672#2 1106471672#1 386834060#12 386834060#11 386834060#9 386834060#8 386834060#7 386834059#5 386834059#7 535558321#0 -664950501#0 -664950501#1 -664950508#0 664950503"/>
    </person>
    <person id="78" depart="78.00">
        <walk edges="-841177016 -562047737 -841177017 237036477#6 237036477#7 237036477#8 237036477#10 237036477#11 75679337#0 75679337#1 1106471668#0 563505769#14 563505769#13 -887737027 887737026"/>
    </person>
    <person id="79" depart="79.00">
        <walk edges="77873286#2 769466394#4 77674950#4 77674950#2 77674950#1 77674950#0 535723603#2 535723603#1 535723603#0 -75701376#7 75701376#6 75701376#5 75701376#4 -75701376#3 -537282071#1"/>
    </person>
    <person id="80" depart="80.00">
        <walk edges="-850495242 1388130354#1 1388130354#2 1388130354#3 1388130354#4 1388130354#5 1388130354#6 535558320#0 535558320#1 535558320#2 535558320#3 -1388130352 447326322#0 906049246 75679256#10 95011158 237036477#2 237036477#1 237036477#0 -563505767#1 75679307#4 1294814198 1294814199#0 1294814199#1 1294814202 1294814203#0 1294814203#1 75679307#1 95015338#0 95015338#1 95015344#12 95015344#13 95015344#14 95015344#15 95015344#1 95015344#2 95015367#0 95015367#1 1388652261 1270064853#1 1388130338#1 76845625#0 76845625#1 76845625#2 970796640#0 89478571#7 89478571#8 889999537#0 889999537#1 89478571#0 89478571#1 70056689#0 70056689#1 70056689#2 70056689#3 70056689#4"/>
    </person>
    <person id="81" depart="81.00">
        <walk edges="-834862852 834862853#1 -834862853#0 -973444848 -447326048#2 -1388130340#1 -1388130340#2 75679292#1 75679292#2 890559265#0 890559265#1 1254902090 1254902089#2 -890559137#0 77712876#0 -664968457#1"/>
    </person>
    <person id="82" depart="82.00">
        <walk edges="90743683#2 90743683#1 90743683#0 147419849#6 147419849#7 147419849#8 89478572#5 89478572#6 89478572#7 75679299#0 1106471686 72508573#13 563505768#2 554964379"/>
    </person>
    <person id="83" depart="83.00">
        <walk edges="386834060#13 535556337#4 329703620#0 329703620#1 329703620#2 329703620#3 329703620#4 329703620#5 329703620#7 75679256#0 75679256#1 1106471682#1 1106471682#0 75679335#4 75679335#1 95015378#0 95015378#1 95015344#10 95015344#11 95015344#12 95015344#13 95015344#14 95015360#1 95015360#0 72508815#11 1270062933#1 1270062933#0 1270062931#2 1270062935 75679319#3 75679319#4 75679319#5"/>
    </person>
    <person id="84" depart="84.00">