<?xml version="1.0" encoding="UTF-8"?>

<!-- generated on 2024-10-18 12:30:32.187356 by osmWebWizard.py UNKNOWN
<configuration>
    <net-file value="/home/renan/Sumo/2024-10-18-12-28-35/osm.net.xml.gz"/>
    <output-trip-file value="/home/renan/Sumo/2024-10-18-12-28-35/osm.pedestrian.trips.xml"/>
    <route-file value="/home/renan/Sumo/2024-10-18-12-28-35/osm.pedestrian.rou.xml"/>
    <pedestrians value="True"/>
    <prefix value="ped"/>
    <vehicle-class value="pedestrian"/>
    <fringe-factor value="1"/>
    <max-distance value="2000.0"/>
    <insertion-density value="10.0"/>
</configuration>
-->

<routes xmlns:xsi="http://www.w3.org/2001/XMLSchema-instance" xsi:noNamespaceSchemaLocation="http://sumo.dlr.de/xsd/routes_file.xsd">
    <vType id="ped_pedestrian" vClass="pedestrian"/>
    <person id="ped0" depart="0.00" type="ped_pedestrian">
        <walk from="174574396" to="-1119756827"/>
    </person>
    <person id="ped1" depart="0.44" type="ped_pedestrian">
        <walk from="-379730732#2" to="-177317480#3"/>
    </person>
    <person id="ped2" depart="0.89" type="ped_pedestrian">
        <walk from="-176722847#3" to="1222573046#1"/>
    </person>
    <person id="ped3" depart="1.33" type="ped_pedestrian">
        <walk from="564429177" to="-1072478698#4"/>
    </person>
    <person id="ped4" depart="1.78" type="ped_pedestrian">
        <walk from="544257074#0" to="175945743#3"/>
    </person>
    <person id="ped5" depart="2.22" type="ped_pedestrian">
        <walk from="-844390819#3" to="-174574824#1"/>
    </person>
    <person id="ped6" depart="2.67" type="ped_pedestrian">
        <walk from="905348574" to="-813517078"/>
    </person>
    <person id="ped7" depart="3.11" type="ped_pedestrian">
        <walk from="-156708414#2" to="-156708436#0"/>
    </person>
    <person id="ped8" depart="3.56" type="ped_pedestrian">
        <walk from="844390819#0" to="156720301#3"/>
    </person>
    <person id="ped9" depart="4.00" type="ped_pedestrian">
        <walk from="156599153#2" to="907947355#0"/>
    </person>
    <person id="ped10" depart="4.44" type="ped_pedestrian">
        <walk from="854699547#0" to="156708429#0"/>
    </person>
    <person id="ped11" depart="4.89" type="ped_pedestrian">
        <walk from="177317382#0" to="-154952910#3"/>
    </person>
    <person id="ped12" depart="5.33" type="ped_pedestrian">
        <walk from="-211401505#3" to="-48446405#3"/>
    </person>
    <person id="ped13" depart="5.78" type="ped_pedestrian">
        <walk from="-896084810#1" to="-175945043#0"/>
    </person>
    <person id="ped14" depart="6.22" type="ped_pedestrian">
        <walk from="-316453913#0" to="900435189"/>
    </person>
    <person id="ped15" depart="6.67" type="ped_pedestrian">
        <walk from="966896079#1" to="174574825#0"/>
    </person>
    <person id="ped16" depart="7.11" type="ped_pedestrian">
        <walk from="156708339#0" to="175820983#2"/>
    </person>
    <person id="ped17" depart="7.56" type="ped_pedestrian">
        <walk from="813517082#5" to="439224159"/>
    </person>
    <person id="ped18" depart="8.00" type="ped_pedestrian">
        <walk from="-599426616#2" to="-319484994"/>
    </person>
    <person id="ped19" depart="8.44" type="ped_pedestrian">
        <walk from="-316317147#0" to="-314932013"/>
    </person>
    <person id="ped20" depart="8.89" type="ped_pedestrian">
        <walk from="156708351#1" to="-316317138#1"/>
    </person>
    <person id="ped21" depart="9.33" type="ped_pedestrian">
        <walk from="-904099235" to="-177317382#2"/>
    </person>
    <person id="ped22" depart="9.78" type="ped_pedestrian">
        <walk from="-156708402#2" to="-154952924"/>
    </person>
    <person id="ped23" depart="10.22" type="ped_pedestrian">
        <walk from="489067609" to="-905809212"/>
    </person>
    <person id="ped24" depart="10.67" type="ped_pedestrian">
        <walk from="905886354#2" to="854382710#1"/>
    </person>
    <person id="ped25" depart="11.11" type="ped_pedestrian">
        <walk from="-1077373860#3" to="265346283#0"/>
    </person>
    <person id="ped26" depart="11.56" type="ped_pedestrian">
        <walk from="897897380#0" to="857613742#0"/>
    </person>
    <person id="ped27" depart="12.00" type="ped_pedestrian">
        <walk from="-489067600" to="174574394"/>
    </person>
    <person id="ped28" depart="12.45" type="ped_pedestrian">
        <walk from="156720334#1" to="-174572459#0"/>
    </person>
    <person id="ped29" depart="12.89" type="ped_pedestrian">
        <walk from="362464968#14" to="156599226"/>
    </person>
    <person id="ped30" depart="13.33" type="ped_pedestrian">
        <walk from="482053699#1" to="156530752#1"/>
    </person>
    <person id="ped31" depart="13.78" type="ped_pedestrian">
        <walk from="-1039501931#0" to="-673241268#0"/>
    </person>
    <person id="ped32" depart="14.22" type="ped_pedestrian">
        <walk from="880895466" to="737162461#1"/>
    </person>
    <person id="ped33" depart="14.67" type="ped_pedestrian">
        <walk from="880480093" to="904945205#0"/>
    </person>
    <person id="ped34" depart="15.11" type="ped_pedestrian">
        <walk from="-156708299#2" to="360758932#3"/>
    </person>
    <person id="ped35" depart="15.56" type="ped_pedestrian">
        <walk from="1187931641" to="156698694#3"/>
    </person>
    <person id="ped36" depart="16.00" type="ped_pedestrian">
        <walk from="-316317147#1" to="862061564"/>
    </person>
    <person id="ped37" depart="16.45" type="ped_pedestrian">
        <walk from="-175820987#5" to="-557354918#0"/>
    </person>
    <person id="ped38" depart="16.89" type="ped_pedestrian">
        <walk from="967396905#2" to="174599965#2"/>
    </person>
    <person id="ped39" depart="17.33" type="ped_pedestrian">
        <walk from="-967089794" to="137273377#0"/>
    </person>
    <person id="ped40" depart="17.78" type="ped_pedestrian">
        <walk from="-237060070#0" to="-177317392#1"/>
    </person>
    <person id="ped41" depart="18.22" type="ped_pedestrian">
        <walk from="-156708315#3" to="174571521#2"/>
    </person>
    <person id="ped42" depart="18.67" type="ped_pedestrian">
        <walk from="-211467936#1" to="896084824#0"/>
    </person>
    <person id="ped43" depart="19.11" type="ped_pedestrian">
        <walk from="854382699" to="-156708315#2"/>
    </person>
    <person id="ped44" depart="19.56" type="ped_pedestrian">
        <walk from="-313258709#2" to="175820422#2"/>
    </person>
    <person id="ped45" depart="20.00" type="ped_pedestrian">
        <walk from="900404952#1" to="156708397#1"/>
    </person>
    <person id="ped46" depart="20.45" type="ped_pedestrian">
        <walk from="1165470064" to="48446483#0"/>
    </person>
    <person id="ped47" depart="20.89" type="ped_pedestrian">
        <walk from="314800853" to="175820823#1"/>
    </person>
    <person id="ped48" depart="21.33" type="ped_pedestrian">
        <walk from="-904945205#1" to="-825659013#3"/>
    </person>
    <person id="ped49" depart="21.78" type="ped_pedestrian">
        <walk from="854699547#0" to="-314934512#2"/>
    </person>
    <person id="ped50" depart="22.22" type="ped_pedestrian">
        <walk from="-905791761" to="-40801490#3"/>
    </person>
    <person id="ped51" depart="22.67" type="ped_pedestrian">
        <walk from="156698719#3" to="-156530759#0"/>
    </person>
    <person id="ped52" depart="23.11" type="ped_pedestrian">
        <walk from="-897935785#2" to="951359431#0"/>
    </person>
    <person id="ped53" depart="23.56" type="ped_pedestrian">
        <walk from="-316317148" to="48446449#1"/>
    </person>
    <person id="ped54" depart="24.00" type="ped_pedestrian">
        <walk from="1074980473#1" to="-905879230#0"/>
    </person>
    <person id="ped55" depart="24.45" type="ped_pedestrian">
        <walk from="156708331" to="237100805"/>
    </person>
    <person id="ped56" depart="24.89" type="ped_pedestrian">
        <walk from="-174574391#1" to="-488952650#1"/>
    </person>
    <person id="ped57" depart="25.33" type="ped_pedestrian">
        <walk from="-156599180" to="156709708#1"/>
    </person>
    <person id="ped58" depart="25.78" type="ped_pedestrian">
        <walk from="1222531604" to="854358038#0"/>
    </person>
    <person id="ped59" depart="26.22" type="ped_pedestrian">
        <walk from="-174599193#0" to="905732801"/>
    </person>
    <person id="ped60" depart="26.67" type="ped_pedestrian">
        <walk from="894807341#0" to="-314932010"/>
    </person>
    <person id="ped61" depart="27.11" type="ped_pedestrian">
        <walk from="-905732824" to="156709707#2"/>
    </person>
    <person id="ped62" depart="27.56" type="ped_pedestrian">
        <walk from="154952817#1" to="900226103#2"/>
    </person>
    <person id="ped63" depart="28.00" type="ped_pedestrian">
        <walk from="-313258710#2" to="-900529371"/>
    </person>
    <person id="ped64" depart="28.45" type="ped_pedestrian">
        <walk from="-616456704" to="316317133#0"/>
    </person>
    <person id="ped65" depart="28.89" type="ped_pedestrian">
        <walk from="-156708322#3" to="1077373860#1"/>
    </person>
    <person id="ped66" depart="29.33" type="ped_pedestrian">
        <walk from="968255327#0" to="967396906"/>
    </person>
    <person id="ped67" depart="29.78" type="ped_pedestrian">
        <walk from="880998492" to="880895469#0"/>
    </person>
    <person id="ped68" depart="30.22" type="ped_pedestrian">
        <walk from="751348719#1" to="176722847#0"/>
    </person>
    <person id="ped69" depart="30.67" type="ped_pedestrian">
        <walk from="621343872#0" to="-489067610#1"/>
    </person>
    <person id="ped70" depart="31.11" type="ped_pedestrian">
        <walk from="-362464968#4" to="156720310#1"/>
    </person>
    <person id="ped71" depart="31.56" type="ped_pedestrian">
        <walk from="237100800#0" to="-175937083"/>
    </person>
    <person id="ped72" depart="32.00" type="ped_pedestrian">
        <walk from="826357365#4" to="-156708409#1"/>
    </person>
    <person id="ped73" depart="32.45" type="ped_pedestrian">
        <walk from="-905879232#1" to="-40721102#0"/>
    </person>
    <person id="ped74" depart="32.89" type="ped_pedestrian">
        <walk from="-1051022910#1" to="40801550#0"/>
    </person>
    <person id="ped75" depart="33.33" type="ped_pedestrian">
        <walk from="896084819#0" to="156662415"/>
    </person>
    <person id="ped76" depart="33.78" type="ped_pedestrian">
        <walk from="-533840752" to="896015454"/>
    </person>
    <person id="ped77" depart="34.22" type="ped_pedestrian">
        <walk from="-315026292#1" to="-156709708#4"/>
    </person>
    <person id="ped78" depart="34.67" type="ped_pedestrian">
        <walk from="482053738" to="892961024"/>
    </person>
    <person id="ped79" depart="35.11" type="ped_pedestrian">
        <walk from="-174574390" to="900157329#4"/>
    </person>
    <person id="ped80" depart="35.56" type="ped_pedestrian">
        <walk from="854701058#0" to="910835568#0"/>
    </person>
    <person id="ped81" depart="36.00" type="ped_pedestrian">
        <walk from="571066483#2" to="882163039"/>
    </person>
    <person id="ped82" depart="36.45" type="ped_pedestrian">
        <walk from="48446514#5" to="-156720161#1"/>
    </person>
    <person id="ped83" depart="36.89" type="ped_pedestrian">
        <walk from="862061562" to="854358225"/>
    </person>
    <person id="ped84" depart="37.34" type="ped_pedestrian">
        <walk from="-177317463#2" to="618640796"/>
    </person>
    <person id="ped85" depart="37.78" type="ped_pedestrian">
        <walk from="1078232754#3" to="-489101589#1"/>
    </person>
    <person id="ped86" depart="38.22" type="ped_pedestrian">
        <walk from="905788230#0" to="-40801548#0"/>
    </person>
    <person id="ped87" depart="38.67" type="ped_pedestrian">
        <walk from="903838055" to="-156720257#0"/>
    </person>
    <person id="ped88" depart="39.11" type="ped_pedestrian">
        <walk from="905732810#1" to="-316317150#1"/>
    </person>
    <person id="ped89" depart="39.56" type="ped_pedestrian">
        <walk from="-1039616638#3" to="899483378#2"/>
    </person>
    <person id="ped90" depart="40.00" type="ped_pedestrian">
        <walk from="254629127#0" to="-489067630"/>
    </person>
    <person id="ped91" depart="40.45" type="ped_pedestrian">
        <walk from="-904942839#1" to="-488952607#0"/>
    </person>
    <person id="ped92" depart="40.89" type="ped_pedestrian">
        <walk from="174687942#3" to="1079235987#1"/>
    </person>
    <person id="ped93" depart="41.34" type="ped_pedestrian">
        <walk from="489067676" to="-174687942#2"/>
    </person>
    <person id="ped94" depart="41.78" type="ped_pedestrian">
        <walk from="-156708372#0" to="1289614197"/>
    </person>
    <person id="ped95" depart="42.22" type="ped_pedestrian">
        <walk from="-175820982#1" to="-1087399450"/>
    </person>
    <person id="ped96" depart="42.67" type="ped_pedestrian">
        <walk from="-314932005#0" to="1187920719"/>
    </person>
    <person id="ped97" depart="43.11" type="ped_pedestrian">
        <walk from="-905732797" to="174571264#1"/>
    </person>
    <person id="ped98" depart="43.56" type="ped_pedestrian">
        <walk from="-175820835#0" to="175945737#1"/>
    </person>
    <person id="ped99" depart="44.00" type="ped_pedestrian">
        <walk from="1219463577" to="-314845931"/>
    </person>
    <person id="ped100" depart="44.45" type="ped_pedestrian">
        <walk from="316317128#0" to="40801490#1"/>
    </person>
    <person id="ped101" depart="44.89" type="ped_pedestrian">
        <walk from="-175819759#5" to="905348578"/>
    </person>
    <person id="ped102" depart="45.34" type="ped_pedestrian">
        <walk from="-315015954#1" to="844390822#1"/>
    </person>
    <person id="ped103" depart="45.78" type="ped_pedestrian">
        <walk from="175820293#0" to="956229100"/>
    </person>
    <person id="ped104" depart="46.22" type="ped_pedestrian">
        <walk from="156720229#0" to="905027482#0"/>
    </person>
    <person id="ped105" depart="46.67" type="ped_pedestrian">
        <walk from="894823147#1" to="156723044#4"/>
    </person>
    <person id="ped106" depart="47.11" type="ped_pedestrian">
        <walk from="1186570024" to="-315392354#4"/>
    </person>
    <person id="ped107" depart="47.56" type="ped_pedestrian">
        <walk from="-314934506#2" to="174574387"/>
    </person>
    <person id="ped108" depart="48.00" type="ped_pedestrian">
        <walk from="174570533" to="-377578995"/>
    </person>
    <person id="ped109" depart="48.45" type="ped_pedestrian">
        <walk from="-156708343#5" to="-482053684"/>
    </person>
    <person id="ped110" depart="48.89" type="ped_pedestrian">
        <walk from="-905786394#0" to="896084822#0"/>
    </person>
    <person id="ped111" depart="49.34" type="ped_pedestrian">
        <walk from="-177317399#0" to="-177317382#3"/>
    </person>
    <person id="ped112" depart="49.78" type="ped_pedestrian">
        <walk from="-966896028#2" to="-1188172698"/>
    </person>
    <person id="ped113" depart="50.22" type="ped_pedestrian">
        <walk from="-781340069#3" to="175820835#0"/>
    </person>
    <person id="ped114" depart="50.67" type="ped_pedestrian">
        <walk from="1085482419#0" to="-156720361#2"/>
    </person>
    <person id="ped115" depart="51.11" type="ped_pedestrian">
        <walk from="174550514#0" to="-1185646807"/>
    </person>
    <person id="ped116" depart="51.56" type="ped_pedestrian">
        <walk from="-167064096" to="1078358975#3"/>
    </person>
    <person id="ped117" depart="52.00" type="ped_pedestrian">
        <walk from="-175945737#4" to="-737162461#0"/>
    </person>
    <person id="ped118" depart="52.45" type="ped_pedestrian">
        <walk from="362421682" to="-897935786#0"/>
    </person>
    <person id="ped119" depart="52.89" type="ped_pedestrian">
        <walk from="316317133#1" to="737162461#3"/>
    </person>
    <person id="ped120" depart="53.34" type="ped_pedestrian">
        <walk from="-315075407#1" to="-156708359#0"/>
    </person>
    <person id="ped121" depart="53.78" type="ped_pedestrian">
        <walk from="-1079246687#0" to="156599226"/>
    </person>
    <person id="ped122" depart="54.22" type="ped_pedestrian">
        <walk from="977581469" to="-879736739"/>
    </person>
    <person id="ped123" depart="54.67" type="ped_pedestrian">
        <walk from="-1079894410" to="-174572456#1"/>
    </person>
    <person id="ped124" depart="55.11" type="ped_pedestrian">
        <walk from="156708359#2" to="-176722483#1"/>
    </person>
    <person id="ped125" depart="55.56" type="ped_pedestrian">
        <walk from="-156720161#1" to="-1165047536#2"/>
    </person>
    <person id="ped126" depart="56.00" type="ped_pedestrian">
        <walk from="211404493#6" to="-156708341#3"/>
    </person>
    <person id="ped127" depart="56.45" type="ped_pedestrian">
        <walk from="-156720307#1" to="938481447"/>
    </person>
    <person id="ped128" depart="56.89" type="ped_pedestrian">
        <walk from="48446412#2" to="-862061558"/>
    </person>
    <person id="ped129" depart="57.34" type="ped_pedestrian">
        <walk from="1222573048" to="-854269536#0"/>
    </person>
    <person id="ped130" depart="57.78" type="ped_pedestrian">
        <walk from="844390832" to="667344272"/>
    </person>
    <person id="ped131" depart="58.22" type="ped_pedestrian">
        <walk from="-156709951#1" to="905732801"/>
    </person>
    <person id="ped132" depart="58.67" type="ped_pedestrian">
        <walk from="-360758932#3" to="564126453#4"/>
    </person>
    <person id="ped133" depart="59.11" type="ped_pedestrian">
        <walk from="1079151519#1" to="156720355#4"/>
    </person>
    <person id="ped134" depart="59.56" type="ped_pedestrian">
        <walk from="854269534" to="-175820290#1"/>
    </person>
    <person id="ped135" depart="60.00" type="ped_pedestrian">
        <walk from="-175945741" to="489101582#1"/>
    </person>
    <person id="ped136" depart="60.45" type="ped_pedestrian">
        <walk from="-844390819#3" to="880927426"/>
    </person>
    <person id="ped137" depart="60.89" type="ped_pedestrian">
        <walk from="1217118638#0" to="319484995#1"/>
    </person>
    <person id="ped138" depart="61.34" type="ped_pedestrian">
        <walk from="1217154131#1" to="489067613#2"/>
    </person>
    <person id="ped139" depart="61.78" type="ped_pedestrian">
        <walk from="-156708414#4" to="-177317441#1"/>
    </person>
    <person id="ped140" depart="62.23" type="ped_pedestrian">
        <walk from="175937095#0" to="-489101593"/>
    </person>
    <person id="ped141" depart="62.67" type="ped_pedestrian">
        <walk from="176722482" to="-362421683"/>
    </person>
    <person id="ped142" depart="63.11" type="ped_pedestrian">
        <walk from="156599153#0" to="362464968#12"/>
    </person>
    <person id="ped143" depart="63.56" type="ped_pedestrian">
        <walk from="911087992" to="154952864#0"/>
    </person>
    <person id="ped144" depart="64.00" type="ped_pedestrian">
        <walk from="908623887" to="156708316#2"/>
    </person>
    <person id="ped145" depart="64.45" type="ped_pedestrian">
        <walk from="855186568#1" to="1217154131#1"/>
    </person>
    <person id="ped146" depart="64.89" type="ped_pedestrian">
        <walk from="862061566" to="156708409#1"/>
    </person>
    <person id="ped147" depart="65.34" type="ped_pedestrian">
        <walk from="903838064" to="1201209643"/>
    </person>
    <person id="ped148" depart="65.78" type="ped_pedestrian">
        <walk from="-156708332#0" to="174571263"/>
    </person>
    <person id="ped149" depart="66.23" type="ped_pedestrian">
        <walk from="156708356#1" to="-489101580#0"/>
    </person>
    <person id="ped150" depart="66.67" type="ped_pedestrian">
        <walk from="154952816#1" to="1061142202#1"/>
    </person>
    <person id="ped151" depart="67.11" type="ped_pedestrian">
        <walk from="-967397649#2" to="854382703"/>
    </person>
    <person id="ped152" depart="67.56" type="ped_pedestrian">
        <walk from="966900585" to="-489101590"/>
    </person>
    <person id="ped153" depart="68.00" type="ped_pedestrian">
        <walk from="-175937097#3" to="-175945737#0"/>
    </person>
    <person id="ped154" depart="68.45" type="ped_pedestrian">
        <walk from="-174689613#0" to="-156708338"/>
    </person>
    <person id="ped155" depart="68.89" type="ped_pedestrian">
        <walk from="-1039930344#3" to="1061142202#1"/>
    </person>
    <person id="ped156" depart="69.34" type="ped_pedestrian">
        <walk from="156720184#1" to="-48446412#8"/>
    </person>
    <person id="ped157" depart="69.78" type="ped_pedestrian">
        <walk from="-237100803" to="177317426"/>
    </person>
    <person id="ped158" depart="70.23" type="ped_pedestrian">
        <walk from="176722483#0" to="1073760132#0"/>
    </person>
    <person id="ped159" depart="70.67" type="ped_pedestrian">
        <walk from="175937074" to="899471122#2"/>
    </person>
    <person id="ped160" depart="71.11" type="ped_pedestrian">
        <walk from="488952607#0" to="174550619#1"/>
    </person>
    <person id="ped161" depart="71.56" type="ped_pedestrian">
        <walk from="-908604275" to="156599300#5"/>
    </person>
    <person id="ped162" depart="72.00" type="ped_pedestrian">
        <walk from="673241268#0" to="-156708316#2"/>
    </person>
    <person id="ped163" depart="72.45" type="ped_pedestrian">
        <walk from="-174659525" to="-533840749#0"/>
    </person>
    <person id="ped164" depart="72.89" type="ped_pedestrian">
        <walk from="175937084" to="175946155#2"/>
    </person>
    <person id="ped165" depart="73.34" type="ped_pedestrian">
        <walk from="-138620688#0" to="-951359431#0"/>
    </person>
    <person id="ped166" depart="73.78" type="ped_pedestrian">
        <walk from="-667348033" to="-315026293#1"/>
    </person>
    <person id="ped167" depart="74.23" type="ped_pedestrian">
        <walk from="753617697" to="156708416#1"/>
    </person>
    <person id="ped168" depart="74.67" type="ped_pedestrian">
        <walk from="1087399448" to="174659548"/>
    </person>
    <person id="ped169" depart="75.11" type="ped_pedestrian">
        <walk from="897956698" to="-175820288#0"/>
    </person>
    <person id="ped170" depart="75.56" type="ped_pedestrian">
        <walk from="156709712#0" to="174572452#0"/>
    </person>
    <person id="ped171" depart="76.00" type="ped_pedestrian">
        <walk from="1217161759#1" to="-156708405"/>
    </person>
    <person id="ped172" depart="76.45" type="ped_pedestrian">
        <walk from="-751955613" to="175945037#3"/>
    </person>
    <person id="ped173" depart="76.89" type="ped_pedestrian">
        <walk from="-482053735" to="904115141#3"/>
    </person>
    <person id="ped174" depart="77.34" type="ped_pedestrian">
        <walk from="599936267#1" to="156698719#1"/>
    </person>
    <person id="ped175" depart="77.78" type="ped_pedestrian">
        <walk from="963326637" to="174688986"/>
    </person>
    <person id="ped176" depart="78.23" type="ped_pedestrian">
        <walk from="156599281#2" to="-905348581#2"/>
    </person>
    <person id="ped177" depart="78.67" type="ped_pedestrian">
        <walk from="-175820548#1" to="-894815182#2"/>
    </person>
    <person id="ped178" depart="79.11" type="ped_pedestrian">
        <walk from="316317153#3" to="174550619#3"/>
    </person>
    <person id="ped179" depart="79.56" type="ped_pedestrian">
        <walk from="156672726#3" to="899835892#0"/>
    </person>
    <person id="ped180" depart="80.00" type="ped_pedestrian">
        <walk from="156708314" to="-156708416#0"/>
    </person>
    <person id="ped181" depart="80.45" type="ped_pedestrian">
        <walk from="1078358975#1" to="-156720274#0"/>
    </person>
    <person id="ped182" depart="80.89" type="ped_pedestrian">
        <walk from="-362775138" to="751955894"/>
    </person>
    <person id="ped183" depart="81.34" type="ped_pedestrian">
        <walk from="899224916#2" to="1247660690"/>
    </person>
    <person id="ped184" depart="81.78" type="ped_pedestrian">
        <walk from="880895469#1" to="854701056#2"/>
    </person>
    <person id="ped185" depart="82.23" type="ped_pedestrian">
        <walk from="-393062052" to="489067598"/>
    </person>
    <person id="ped186" depart="82.67" type="ped_pedestrian">
        <walk from="-905732800" to="900225413#7"/>
    </person>
    <person id="ped187" depart="83.12" type="ped_pedestrian">
        <walk from="156599205#1" to="-854358051#1"/>
    </person>
    <person id="ped188" depart="83.56" type="ped_pedestrian">
        <walk from="156708312#1" to="156599298#1"/>
    </person>
    <person id="ped189" depart="84.00" type="ped_pedestrian">
        <walk from="-175820823#1" to="175945742#1"/>
    </person>
    <person id="ped190" depart="84.45" type="ped_pedestrian">
        <walk from="156708400" to="-265346281#0"/>
    </person>
    <person id="ped191" depart="84.89" type="ped_pedestrian">
        <walk from="315075421#1" to="177317390#1"/>
    </person>
    <person id="ped192" depart="85.34" type="ped_pedestrian">
        <walk from="919177835#1" to="1220520074#0"/>
    </person>
    <person id="ped193" depart="85.78" type="ped_pedestrian">
        <walk from="156720157#0" to="855187051#5"/>
    </person>
    <person id="ped194" depart="86.23" type="ped_pedestrian">
        <walk from="286522068#1" to="-905344924"/>
    </person>
    <person id="ped195" depart="86.67" type="ped_pedestrian">
        <walk from="174687942#3" to="-174574389#1"/>
    </person>
    <person id="ped196" depart="87.12" type="ped_pedestrian">
        <walk from="-825643238" to="175937097#3"/>
    </person>
    <person id="ped197" depart="87.56" type="ped_pedestrian">
        <walk from="854358035" to="854382694"/>
    </person>
    <person id="ped198" depart="88.00" type="ped_pedestrian">
        <walk from="862061564" to="-1287745643"/>
    </person>
    <person id="ped199" depart="88.45" type="ped_pedestrian">
        <walk from="-156698694#1" to="174571521#2"/>
    </person>
    <person id="ped200" depart="88.89" type="ped_pedestrian">
        <walk from="899220340#9" to="967397649#2"/>
    </person>
    <person id="ped201" depart="89.34" type="ped_pedestrian">
        <walk from="315220470#4" to="-956228528#1"/>
    </person>
    <person id="ped202" depart="89.78" type="ped_pedestrian">
        <walk from="-156709666#1" to="174572447"/>
    </person>
    <person id="ped203" depart="90.23" type="ped_pedestrian">
        <walk from="862061565" to="-967398419"/>
    </person>
    <person id="ped204" depart="90.67" type="ped_pedestrian">
        <walk from="175945039#0" to="896084817#0"/>
    </person>
    <person id="ped205" depart="91.12" type="ped_pedestrian">
        <walk from="-174571263" to="156530759#0"/>
    </person>
    <person id="ped206" depart="91.56" type="ped_pedestrian">
        <walk from="156708366#2" to="489067611"/>
    </person>
    <person id="ped207" depart="92.00" type="ped_pedestrian">
        <walk from="-174687947#0" to="-156708349#1"/>
    </person>
    <person id="ped208" depart="92.45" type="ped_pedestrian">
        <walk from="-174570536#1" to="1078358942#3"/>
    </person>
    <person id="ped209" depart="92.89" type="ped_pedestrian">
        <walk from="-315075418#1" to="-315075421#1"/>
    </person>
    <person id="ped210" depart="93.34" type="ped_pedestrian">
        <walk from="-1077371940#0" to="533934745#1"/>
    </person>
    <person id="ped211" depart="93.78" type="ped_pedestrian">
        <walk from="-174599197" to="-967396906"/>
    </person>
    <person id="ped212" depart="94.23" type="ped_pedestrian">
        <walk from="174574394" to="-905947790#1"/>
    </person>
    <person id="ped213" depart="94.67" type="ped_pedestrian">
        <walk from="-315026292#6" to="825659013#5"/>
    </person>
    <person id="ped214" depart="95.12" type="ped_pedestrian">
        <walk from="-175820982#2" to="-899471122#0"/>
    </person>
    <person id="ped215" depart="95.56" type="ped_pedestrian">
        <walk from="156708401#1" to="156708414#3"/>
    </person>
    <person id="ped216" depart="96.00" type="ped_pedestrian">
        <walk from="-377578994" to="156708366#2"/>
    </person>
    <person id="ped217" depart="96.45" type="ped_pedestrian">
        <walk from="174572456#1" to="173879014#0"/>
    </person>
    <person id="ped218" depart="96.89" type="ped_pedestrian">
        <walk from="174689614#0" to="754631968#1"/>
    </person>
    <person id="ped219" depart="97.34" type="ped_pedestrian">
        <walk from="174599217#0" to="-533934724#0"/>
    </person>
    <person id="ped220" depart="97.78" type="ped_pedestrian">
        <walk from="-967396905#2" to="156708440#1"/>
    </person>
    <person id="ped221" depart="98.23" type="ped_pedestrian">
        <walk from="314845923" to="-156708401#1"/>
    </person>
    <person id="ped222" depart="98.67" type="ped_pedestrian">
        <walk from="-175819759#3" to="-156723053#2"/>
    </person>
    <person id="ped223" depart="99.12" type="ped_pedestrian">
        <walk from="156599226" to="905947790#1"/>
    </person>
    <person id="ped224" depart="99.56" type="ped_pedestrian">
        <walk from="557149458#0" to="315220470#3"/>
    </person>
    <person id="ped225" depart="100.00" type="ped_pedestrian">
        <walk from="905732812" to="-174550520#1"/>
    </person>
    <person id="ped226" depart="100.45" type="ped_pedestrian">
        <walk from="905781317" to="854382702#3"/>
    </person>
    <person id="ped227" depart="100.89" type="ped_pedestrian">
        <walk from="667344272" to="903838060"/>
    </person>
    <person id="ped228" depart="101.34" type="ped_pedestrian">
        <walk from="-156720161#2" to="-265346283#0"/>
    </person>
    <person id="ped229" depart="101.78" type="ped_pedestrian">