<?xml version="1.0" encoding="UTF-8"?>

<!-- generated on 2024-10-18 12:29:43.993134 by osmWebWizard.py UNKNOWN
<configuration>
    <net-file value="/home/renan/Sumo/2024-10-18-12-28-35/osm.net.xml.gz"/>
    <output-trip-file value="/home/renan/Sumo/2024-10-18-12-28-35/osm.motorcycle.trips.xml"/>
    <route-file value="/home/renan/Sumo/2024-10-18-12-28-35/osm.motorcycle.rou.xml"/>
    <prefix value="motorcycle"/>
    <trip-attributes value="departLane=&quot;best&quot;"/>
    <fringe-start-attributes value="departSpeed=&quot;max&quot;"/>
    <vehicle-class value="motorcycle"/>
    <fringe-factor value="2"/>
    <vclass value="motorcycle"/>
    <via-edge-types value="highway.motorway,highway.motorway_link,highway.trunk_link,highway.primary_link,highway.secondary_link,highway.tertiary_link"/>
    <max-distance value="1200.0"/>
    <remove-loops value="True"/>
    <validate value="True"/>
    <insertion-density value="4.0"/>
</configuration>
-->

<!-- generated on 2024-10-18 12:29:42 by Eclipse SUMO duarouter Version 1.21.0
<duarouterConfiguration xmlns:xsi="http://www.w3.org/2001/XMLSchema-instance" xsi:noNamespaceSchemaLocation="http://sumo.dlr.de/xsd/duarouterConfiguration.xsd">

    <input>
        <net-file value="/home/renan/Sumo/2024-10-18-12-28-35/osm.net.xml.gz"/>
        <route-files value="/home/renan/Sumo/2024-10-18-12-28-35/osm.motorcycle.trips.xml"/>
    </input>

    <output>
        <output-file value="/home/renan/Sumo/2024-10-18-12-28-35/osm.motorcycle.trips.xml.tmp"/>
        <alternatives-output value="NUL"/>
        <write-trips value="true"/>
    </output>

    <processing>
        <remove-loops value="true"/>
    </processing>

    <time>
        <begin value="0.0"/>
        <end value="3600.0"/>
    </time>

    <report>
        <no-warnings value="true"/>
        <ignore-errors value="true"/>
        <no-step-log value="true"/>
    </report>

</duarouterConfiguration>
-->

<routes xmlns:xsi="http://www.w3.org/2001/XMLSchema-instance" xsi:noNamespaceSchemaLocation="http://sumo.dlr.de/xsd/routes_file.xsd">
    <vType id="motorcycle_motorcycle" vClass="motorcycle"/>
    <trip id="motorcycle0" type="motorcycle_motorcycle" depart="0.00" departLane="best" from="156662438" to="151159983#4"/>
    <trip id="motorcycle1" type="motorcycle_motorcycle" depart="1.03" departLane="best" from="-315220470#4" to="-175820278#1"/>
    <trip id="motorcycle2" type="motorcycle_motorcycle" depart="2.06" departLane="best" from="544257067#1" to="-1077371940#1"/>
    <trip id="motorcycle3" type="motorcycle_motorcycle" depart="3.08" departLane="best" from="533840751#0" to="315026291#6"/>
    <trip id="motorcycle4" type="motorcycle_motorcycle" depart="4.11" departLane="best" from="-156720288#2" to="-156720324#0"/>
    <trip id="motorcycle5" type="motorcycle_motorcycle" depart="5.14" departLane="best" from="751925706" to="-175937076#0"/>
    <trip id="motorcycle6" type="motorcycle_motorcycle" depart="6.17" departLane="best" from="902517973" to="156708433#0"/>
    <trip id="motorcycle7" type="motorcycle_motorcycle" depart="7.20" departLane="best" from="-667345453#1" to="-482053699#0"/>
    <trip id="motorcycle8" type="motorcycle_motorcycle" depart="8.22" departLane="best" from="285327556" to="174555688#0"/>
    <trip id="motorcycle9" type="motorcycle_motorcycle" depart="9.25" departLane="best" from="905424356" to="179051628"/>
    <trip id="motorcycle10" type="motorcycle_motorcycle" depart="10.28" departLane="best" from="488952621#1" to="-174550581#3"/>
    <trip id="motorcycle11" type="motorcycle_motorcycle" depart="11.31" departLane="best" departSpeed="max" from="-951359433#1" to="-156672725#1"/>
    <trip id="motorcycle12" type="motorcycle_motorcycle" depart="12.34" departLane="best" from="-156720233#0" to="156720229#1"/>
    <trip id="motorcycle13" type="motorcycle_motorcycle" depart="13.37" departLane="best" from="-156709702#0" to="48446336#2"/>
    <trip id="motorcycle14" type="motorcycle_motorcycle" depart="14.39" departLane="best" from="-316317150#0" to="900225415#1"/>
    <trip id="motorcycle15" type="motorcycle_motorcycle" depart="15.42" departLane="best" from="967398960#3" to="-488952607#1"/>
    <trip id="motorcycle16" type="motorcycle_motorcycle" depart="16.45" departLane="best" from="-175819911#0" to="-905289825#1"/>
    <trip id="motorcycle17" type="motorcycle_motorcycle" depart="17.48" departLane="best" departSpeed="max" from="174571263" to="482053674#2"/>
    <trip id="motorcycle18" type="motorcycle_motorcycle" depart="18.51" departLane="best" from="899242859#0" to="-40802855#3"/>
    <trip id="motorcycle19" type="motorcycle_motorcycle" depart="19.53" departLane="best" from="156709712#0" to="156708429#1"/>
    <trip id="motorcycle20" type="motorcycle_motorcycle" depart="20.56" departLane="best" from="970883574#0" to="900568587"/>
    <trip id="motorcycle21" type="motorcycle_motorcycle" depart="21.59" departLane="best" from="899224920#0" to="899229878#3"/>
    <trip id="motorcycle22" type="motorcycle_motorcycle" depart="22.62" departLane="best" from="-174661179" to="-174572448"/>
    <trip id="motorcycle23" type="motorcycle_motorcycle" depart="23.65" departLane="best" from="544257071#0" to="899235764#0"/>
    <trip id="motorcycle24" type="motorcycle_motorcycle" depart="24.67" departLane="best" from="1077371940#3" to="905947766#1"/>
    <trip id="motorcycle25" type="motorcycle_motorcycle" depart="25.70" departLane="best" from="489067619" to="-167061172#3"/>
    <trip id="motorcycle26" type="motorcycle_motorcycle" depart="26.73" departLane="best" from="1074106382" to="896084808"/>
    <trip id="motorcycle27" type="motorcycle_motorcycle" depart="27.76" departLane="best" from="967396905#0" to="-174555687#1"/>
    <trip id="motorcycle28" type="motorcycle_motorcycle" depart="28.79" departLane="best" from="174570536#0" to="316317150#0"/>
    <trip id="motorcycle29" type="motorcycle_motorcycle" depart="29.82" departLane="best" from="967397651#7" to="-156709707#3"/>
    <trip id="motorcycle30" type="motorcycle_motorcycle" depart="30.84" departLane="best" from="156708312#2" to="174689612#0"/>
    <trip id="motorcycle31" type="motorcycle_motorcycle" depart="31.87" departLane="best" from="-156709715#0" to="900222353#6"/>
    <trip id="motorcycle32" type="motorcycle_motorcycle" depart="32.90" departLane="best" from="-48446414#1" to="156720266#4"/>
    <trip id="motorcycle33" type="motorcycle_motorcycle" depart="33.93" departLane="best" from="254625765#2" to="967398960#5"/>
    <trip id="motorcycle34" type="motorcycle_motorcycle" depart="34.96" departLane="best" from="175820288#0" to="966900584"/>
    <trip id="motorcycle35" type="motorcycle_motorcycle" depart="35.98" departLane="best" from="-899472258" to="175820950#1"/>
    <trip id="motorcycle36" type="motorcycle_motorcycle" depart="37.01" departLane="best" from="174571259#0" to="-174599200#5"/>
    <trip id="motorcycle37" type="motorcycle_motorcycle" depart="38.04" departLane="best" from="315026293#1" to="-156708349#0"/>
    <trip id="motorcycle38" type="motorcycle_motorcycle" depart="39.07" departLane="best" from="885519417" to="48446494#0"/>
    <trip id="motorcycle39" type="motorcycle_motorcycle" depart="40.10" departLane="best" from="156708321#2" to="1177251632"/>
    <trip id="motorcycle40" type="motorcycle_motorcycle" depart="41.12" departLane="best" from="314934508#1" to="1074980472#0"/>
    <trip id="motorcycle41" type="motorcycle_motorcycle" depart="42.15" departLane="best" from="455778996#2" to="754631968#1"/>
    <trip id="motorcycle42" type="motorcycle_motorcycle" depart="43.18" departLane="best" from="1078712585" to="174571256#3"/>
    <trip id="motorcycle43" type="motorcycle_motorcycle" depart="44.21" departLane="best" from="174599207#0" to="-315026291#8"/>
    <trip id="motorcycle44" type="motorcycle_motorcycle" depart="45.24" departLane="best" from="-175820824#11" to="175820830#8"/>
    <!-- <trip id="motorcycle45" type="motorcycle_motorcycle" depart="46.27" departLane="best" from="967086696#2" to="-154952940#1"/>
    <trip id="motorcycle46" type="motorcycle_motorcycle" depart="47.29" departLane="best" from="-174555687#1" to="967397649#2"/>
    <trip id="motorcycle47" type="motorcycle_motorcycle" depart="48.32" departLane="best" from="489067602#0" to="1087399448"/>
    <trip id="motorcycle48" type="motorcycle_motorcycle" depart="49.35" departLane="best" departSpeed="max" from="-156723052#3" to="967089788#1"/>
    <trip id="motorcycle49" type="motorcycle_motorcycle" depart="50.38" departLane="best" from="175945737#4" to="-753617595"/>
    <trip id="motorcycle50" type="motorcycle_motorcycle" depart="51.41" departLane="best" from="-694502257#0" to="882163044#0"/>
    <trip id="motorcycle51" type="motorcycle_motorcycle" depart="52.43" departLane="best" from="753165193#4" to="156720257#11"/>
    <trip id="motorcycle52" type="motorcycle_motorcycle" depart="53.46" departLane="best" from="315015954#0" to="489103402#0"/>
    <trip id="motorcycle53" type="motorcycle_motorcycle" depart="54.49" departLane="best" from="314934508#0" to="-892813004#0"/>
    <trip id="motorcycle54" type="motorcycle_motorcycle" depart="55.52" departLane="best" from="-314840846#0" to="951359432#1"/>
    <trip id="motorcycle55" type="motorcycle_motorcycle" depart="56.55" departLane="best" from="-204052439#0" to="-174555688#0"/>
    <trip id="motorcycle56" type="motorcycle_motorcycle" depart="57.57" departLane="best" from="174555533#7" to="48446405#8"/>
    <trip id="motorcycle57" type="motorcycle_motorcycle" depart="58.60" departLane="best" from="-156720191" to="321740727#2"/>
    <trip id="motorcycle58" type="motorcycle_motorcycle" depart="59.63" departLane="best" from="-175937086#0" to="1078359822#1"/>
    <trip id="motorcycle59" type="motorcycle_motorcycle" depart="60.66" departLane="best" from="897981023" to="174687942#3"/>
    <trip id="motorcycle60" type="motorcycle_motorcycle" depart="61.69" departLane="best" from="489067641#1" to="-315235809#1"/>
    <trip id="motorcycle61" type="motorcycle_motorcycle" depart="62.72" departLane="best" from="-173879014#0" to="156708386#0"/>
    <trip id="motorcycle62" type="motorcycle_motorcycle" depart="63.74" departLane="best" from="175820987#1" to="175820835#1"/>
    <trip id="motorcycle63" type="motorcycle_motorcycle" depart="64.77" departLane="best" from="392532446" to="966900458#0"/>
    <trip id="motorcycle64" type="motorcycle_motorcycle" depart="65.80" departLane="best" from="-314845922#0" to="314840849#0"/>
    <trip id="motorcycle65" type="motorcycle_motorcycle" depart="66.83" departLane="best" from="237065577" to="-175819913#5"/>
    <trip id="motorcycle67" type="motorcycle_motorcycle" depart="68.88" departLane="best" from="156720262#7" to="-156720190#3"/>
    <trip id="motorcycle68" type="motorcycle_motorcycle" depart="69.91" departLane="best" from="-154952927#1" to="156708321#2"/>
    <trip id="motorcycle69" type="motorcycle_motorcycle" depart="70.94" departLane="best" from="-754631970" to="174687954#2"/>
    <trip id="motorcycle70" type="motorcycle_motorcycle" depart="71.97" departLane="best" from="1074982671#0" to="314934507#0"/>
    <trip id="motorcycle71" type="motorcycle_motorcycle" depart="73.00" departLane="best" from="-571066483#5" to="174572457#0"/>
    <trip id="motorcycle72" type="motorcycle_motorcycle" depart="74.02" departLane="best" from="-175820824#6" to="-379730732#2"/>
    <trip id="motorcycle73" type="motorcycle_motorcycle" depart="75.05" departLane="best" from="968239944" to="904082957#0"/>
    <trip id="motorcycle74" type="motorcycle_motorcycle" depart="76.08" departLane="best" from="315235809#1" to="156723044#1"/>
    <trip id="motorcycle75" type="motorcycle_motorcycle" depart="77.11" departLane="best" from="156720355#2" to="673018060"/>
    <trip id="motorcycle76" type="motorcycle_motorcycle" depart="78.14" departLane="best" from="174572456#1" to="174572439#0"/>
    <trip id="motorcycle77" type="motorcycle_motorcycle" depart="79.17" departLane="best" from="237095569#1" to="673024600"/>
    <trip id="motorcycle78" type="motorcycle_motorcycle" depart="80.19" departLane="best" from="-1078358975#3" to="314933871#2"/>
    <trip id="motorcycle79" type="motorcycle_motorcycle" depart="81.22" departLane="best" departSpeed="max" from="-904068906" to="1247660688"/>
    <trip id="motorcycle80" type="motorcycle_motorcycle" depart="82.25" departLane="best" from="1077373860#5" to="544257067#1"/>
    <trip id="motorcycle81" type="motorcycle_motorcycle" depart="83.28" departLane="best" from="175946155#2" to="156672726#1"/>
    <trip id="motorcycle82" type="motorcycle_motorcycle" depart="84.31" departLane="best" from="313258706#0" to="151159983#3"/>
    <trip id="motorcycle83" type="motorcycle_motorcycle" depart="85.33" departLane="best" from="174659531#0" to="174687954#0"/>
    <trip id="motorcycle84" type="motorcycle_motorcycle" depart="86.36" departLane="best" from="-313258707#0" to="40802699#2"/>
    <trip id="motorcycle85" type="motorcycle_motorcycle" depart="87.39" departLane="best" from="156720288#2" to="900225413#3"/>
    <trip id="motorcycle86" type="motorcycle_motorcycle" depart="88.42" departLane="best" from="175945742#1" to="175937088#0"/>
    <trip id="motorcycle87" type="motorcycle_motorcycle" depart="89.45" departLane="best" from="237062380#1" to="813517631#2"/>
    <trip id="motorcycle88" type="motorcycle_motorcycle" depart="90.47" departLane="best" from="156708343#5" to="174689611#0"/>
    <trip id="motorcycle89" type="motorcycle_motorcycle" depart="91.50" departLane="best" from="-904117100#3" to="482053669#2"/>
    <trip id="motorcycle90" type="motorcycle_motorcycle" depart="92.53" departLane="best" from="1077373962" to="-316317147#1"/>
    <trip id="motorcycle91" type="motorcycle_motorcycle" depart="93.56" departLane="best" from="855187051#3" to="156708414#2"/>
    <trip id="motorcycle92" type="motorcycle_motorcycle" depart="94.59" departLane="best" from="174571521#0" to="-174599229#0"/>
    <trip id="motorcycle93" type="motorcycle_motorcycle" depart="95.62" departLane="best" from="-156709700" to="48446487#0"/>
    <trip id="motorcycle94" type="motorcycle_motorcycle" depart="96.64" departLane="best" from="-174659526#0" to="-174572455#2"/>
    <trip id="motorcycle95" type="motorcycle_motorcycle" depart="97.67" departLane="best" from="967090031" to="156708332#0"/>
    <trip id="motorcycle96" type="motorcycle_motorcycle" depart="98.70" departLane="best" from="156720161#0" to="156530788#0"/>
    <trip id="motorcycle97" type="motorcycle_motorcycle" depart="99.73" departLane="best" from="900226326#1" to="-156709949"/>
    <trip id="motorcycle98" type="motorcycle_motorcycle" depart="100.76" departLane="best" from="-156708368#1" to="-880465307"/>
    <trip id="motorcycle99" type="motorcycle_motorcycle" depart="101.78" departLane="best" from="211401239#0" to="48446514#2"/>
    <trip id="motorcycle100" type="motorcycle_motorcycle" depart="102.81" departLane="best" from="966900579" to="267315594#0"/>
    <trip id="motorcycle101" type="motorcycle_motorcycle" depart="103.84" departLane="best" from="40802699#4" to="-175945037#3"/>
    <trip id="motorcycle102" type="motorcycle_motorcycle" depart="104.87" departLane="best" departSpeed="max" from="175820423" to="1158364280"/>
    <trip id="motorcycle103" type="motorcycle_motorcycle" depart="105.90" departLane="best" from="1216823917#2" to="-316453913#0"/>
    <trip id="motorcycle104" type="motorcycle_motorcycle" depart="106.92" departLane="best" from="-156708348#1" to="754629375#0"/>
    <trip id="motorcycle105" type="motorcycle_motorcycle" depart="107.95" departLane="best" from="754628245#1" to="544257071#1"/>
    <trip id="motorcycle106" type="motorcycle_motorcycle" depart="108.98" departLane="best" from="905027481#1" to="895398088#2"/>
    <trip id="motorcycle107" type="motorcycle_motorcycle" depart="110.01" departLane="best" from="174661169#0" to="174687942#1"/>
    <trip id="motorcycle108" type="motorcycle_motorcycle" depart="111.04" departLane="best" from="-175820824#3" to="156723050#1"/>
    <trip id="motorcycle109" type="motorcycle_motorcycle" depart="112.07" departLane="best" from="316317150#2" to="-667348034#0"/>
    <trip id="motorcycle110" type="motorcycle_motorcycle" depart="113.09" departLane="best" from="174659556#1" to="-204052439#1"/>
    <trip id="motorcycle111" type="motorcycle_motorcycle" depart="114.12" departLane="best" from="482053678#1" to="48446294#6"/>
    <trip id="motorcycle112" type="motorcycle_motorcycle" depart="115.15" departLane="best" from="175937077#1" to="896084808"/>
    <trip id="motorcycle113" type="motorcycle_motorcycle" depart="116.18" departLane="best" from="-156709692" to="156708355#1"/>
    <trip id="motorcycle114" type="motorcycle_motorcycle" depart="117.21" departLane="best" from="-174687964#0" to="-156708341#0"/>
    <trip id="motorcycle115" type="motorcycle_motorcycle" depart="118.23" departLane="best" from="489067599#0" to="156708343#1"/>
    <trip id="motorcycle116" type="motorcycle_motorcycle" depart="119.26" departLane="best" from="-896084809#2" to="156599192"/>
    <trip id="motorcycle117" type="motorcycle_motorcycle" depart="120.29" departLane="best" from="489067632#1" to="211404489#1"/>
    <trip id="motorcycle118" type="motorcycle_motorcycle" depart="121.32" departLane="best" from="967091503#2" to="-315026291#9"/>
    <trip id="motorcycle119" type="motorcycle_motorcycle" depart="122.35" departLane="best" from="966896029#4" to="156720231#0"/>
    <trip id="motorcycle120" type="motorcycle_motorcycle" depart="123.37" departLane="best" from="-156720161#2" to="855187051#3"/>
    <trip id="motorcycle121" type="motorcycle_motorcycle" depart="124.40" departLane="best" from="533946215" to="-175820536#0"/>
    <trip id="motorcycle122" type="motorcycle_motorcycle" depart="125.43" departLane="best" from="966896029#1" to="967397651#4"/>
    <trip id="motorcycle123" type="motorcycle_motorcycle" depart="126.46" departLane="best" from="967090456#5" to="667345446#0"/>
    <trip id="motorcycle124" type="motorcycle_motorcycle" depart="127.49" departLane="best" from="-489067655#4" to="194731749#2"/>
    <trip id="motorcycle125" type="motorcycle_motorcycle" depart="128.52" departLane="best" from="48446230#5" to="-754629241#0"/>
    <trip id="motorcycle126" type="motorcycle_motorcycle" depart="129.54" departLane="best" from="1087576038#2" to="1201213009"/>
    <trip id="motorcycle127" type="motorcycle_motorcycle" depart="130.57" departLane="best" from="905879229" to="844390817#1"/>
    <trip id="motorcycle128" type="motorcycle_motorcycle" depart="131.60" departLane="best" from="-156720176#2" to="-533813982"/>
    <trip id="motorcycle129" type="motorcycle_motorcycle" depart="132.63" departLane="best" from="-1078682750#1" to="167061004#1"/>
    <trip id="motorcycle130" type="motorcycle_motorcycle" depart="133.66" departLane="best" from="-156708303#2" to="175820982#3"/>
    <trip id="motorcycle131" type="motorcycle_motorcycle" depart="134.68" departLane="best" from="237100801#0" to="-156720240#1"/>
    <trip id="motorcycle132" type="motorcycle_motorcycle" depart="135.71" departLane="best" from="967398960#4" to="174574824#1"/>
    <trip id="motorcycle133" type="motorcycle_motorcycle" depart="136.74" departLane="best" from="489067629" to="1084134523#1"/>
    <trip id="motorcycle134" type="motorcycle_motorcycle" depart="137.77" departLane="best" from="48446487#0" to="393062054"/>
    <trip id="motorcycle135" type="motorcycle_motorcycle" depart="138.80" departLane="best" from="-174572440#5" to="634042770#3"/>
    <trip id="motorcycle136" type="motorcycle_motorcycle" depart="139.82" departLane="best" from="175820982#1" to="489067608#1"/>
    <trip id="motorcycle137" type="motorcycle_motorcycle" depart="140.85" departLane="best" from="-156708441#0" to="314934511#0"/>
    <trip id="motorcycle138" type="motorcycle_motorcycle" depart="141.88" departLane="best" from="156708341#5" to="489067602#1"/>
    <trip id="motorcycle139" type="motorcycle_motorcycle" depart="142.91" departLane="best" departSpeed="max" from="-156530753#1" to="-923973066#0"/>
    <trip id="motorcycle140" type="motorcycle_motorcycle" depart="143.94" departLane="best" from="174571266#0" to="-489067655#4"/>
    <trip id="motorcycle141" type="motorcycle_motorcycle" depart="144.97" departLane="best" from="899242856#1" to="40802520#2"/>
    <trip id="motorcycle142" type="motorcycle_motorcycle" depart="145.99" departLane="best" from="-951359431#0" to="175820823#1"/>
    <trip id="motorcycle143" type="motorcycle_motorcycle" depart="147.02" departLane="best" from="156672726#3" to="314845930"/>
    <trip id="motorcycle144" type="motorcycle_motorcycle" depart="148.05" departLane="best" from="-156708441#1" to="489067606#0"/>
    <trip id="motorcycle145" type="motorcycle_motorcycle" depart="149.08" departLane="best" from="900157340" to="156708365#0"/>
    <trip id="motorcycle146" type="motorcycle_motorcycle" depart="150.11" departLane="best" from="905788230#1" to="177317382#0"/>
    <trip id="motorcycle147" type="motorcycle_motorcycle" depart="151.13" departLane="best" from="-1187941450" to="174574396"/>
    <trip id="motorcycle148" type="motorcycle_motorcycle" depart="152.16" departLane="best" from="977898782#3" to="316317146"/>
    <trip id="motorcycle149" type="motorcycle_motorcycle" depart="153.19" departLane="best" from="-673241268#0" to="-156709951#0"/>
    <trip id="motorcycle150" type="motorcycle_motorcycle" depart="154.22" departLane="best" from="1079347143#1" to="899229876#0"/>
    <trip id="motorcycle151" type="motorcycle_motorcycle" depart="155.25" departLane="best" from="156708317#5" to="900565326#4"/>
    <trip id="motorcycle152" type="motorcycle_motorcycle" depart="156.27" departLane="best" from="174572455#0" to="174572439#0"/>
    <trip id="motorcycle153" type="motorcycle_motorcycle" depart="157.30" departLane="best" from="-923973066#0" to="174555530#6"/>
    <trip id="motorcycle154" type="motorcycle_motorcycle" depart="158.33" departLane="best" from="211401239#1" to="48446497#5"/>
    <trip id="motorcycle155" type="motorcycle_motorcycle" depart="159.36" departLane="best" from="1216823918#2" to="174599208#4"/>
    <trip id="motorcycle156" type="motorcycle_motorcycle" depart="160.39" departLane="best" from="-673018060" to="-48446414#0"/>
    <trip id="motorcycle157" type="motorcycle_motorcycle" depart="161.42" departLane="best" from="-156720316#0" to="-900222353#5"/>
    <trip id="motorcycle158" type="motorcycle_motorcycle" depart="162.44" departLane="best" from="138620688#3" to="175820983#2"/>
    <trip id="motorcycle159" type="motorcycle_motorcycle" depart="163.47" departLane="best" from="-954484640#2" to="-1176925202#0"/>
    <trip id="motorcycle160" type="motorcycle_motorcycle" depart="164.50" departLane="best" from="967090459" to="-314932009#1"/>
    <trip id="motorcycle161" type="motorcycle_motorcycle" depart="165.53" departLane="best" from="1190074813" to="-156530784#1"/>
    <trip id="motorcycle162" type="motorcycle_motorcycle" depart="166.56" departLane="best" departSpeed="max" from="156720327#0" to="48446449#1"/>
    <trip id="motorcycle163" type="motorcycle_motorcycle" depart="167.58" departLane="best" from="279451570#1" to="-174555687#2"/>
    <trip id="motorcycle164" type="motorcycle_motorcycle" depart="168.61" departLane="best" from="934987277" to="48445110#1"/>
    <trip id="motorcycle165" type="motorcycle_motorcycle" depart="169.64" departLane="best" departSpeed="max" from="-286522070#1" to="156723044#3"/>
    <trip id="motorcycle166" type="motorcycle_motorcycle" depart="170.67" departLane="best" from="489067602#1" to="489067602#0"/>
    <trip id="motorcycle167" type="motorcycle_motorcycle" depart="171.70" departLane="best" from="-175937095#1" to="-175937084"/>
    <trip id="motorcycle168" type="motorcycle_motorcycle" depart="172.72" departLane="best" from="363490226#0" to="156708341#2"/>
    <trip id="motorcycle170" type="motorcycle_motorcycle" depart="174.78" departLane="best" from="-1078685249#3" to="1176925202#0"/>
    <trip id="motorcycle171" type="motorcycle_motorcycle" depart="175.81" departLane="best" from="176722847#1" to="-314934506#1"/>
    <trip id="motorcycle172" type="motorcycle_motorcycle" depart="176.84" departLane="best" from="488952650#1" to="174599200#3"/>
    <trip id="motorcycle173" type="motorcycle_motorcycle" depart="177.87" departLane="best" from="-316317128#0" to="967391488#3"/>
    <trip id="motorcycle174" type="motorcycle_motorcycle" depart="178.89" departLane="best" from="1039616638#1" to="1087577651"/>
    <trip id="motorcycle175" type="motorcycle_motorcycle" depart="179.92" departLane="best" from="-754629375#1" to="174571259#0"/>
    <trip id="motorcycle176" type="motorcycle_motorcycle" depart="180.95" departLane="best" from="175820839" to="175819919#1"/>
    <trip id="motorcycle177" type="motorcycle_motorcycle" depart="181.98" departLane="best" from="-156599255#1" to="-156599281#0"/>
    <trip id="motorcycle178" type="motorcycle_motorcycle" depart="183.01" departLane="best" from="900225413#5" to="-156720274#0"/>
    <trip id="motorcycle179" type="motorcycle_motorcycle" depart="184.03" departLane="best" from="-316317133#0" to="-936134588"/>
    <trip id="motorcycle180" type="motorcycle_motorcycle" depart="185.06" departLane="best" from="174571266#1" to="156720276#2"/>
    <trip id="motorcycle181" type="motorcycle_motorcycle" depart="186.09" departLane="best" from="316317142#0" to="40753532#0"/>
    <trip id="motorcycle182" type="motorcycle_motorcycle" depart="187.12" departLane="best" departSpeed="max" from="882171604#0" to="482053730"/>
    <trip id="motorcycle183" type="motorcycle_motorcycle" depart="188.15" departLane="best" from="-571066483#6" to="-316453913#0"/>
    <trip id="motorcycle184" type="motorcycle_motorcycle" depart="189.17" departLane="best" from="-174574393#0" to="-174688986"/>
    <trip id="motorcycle185" type="motorcycle_motorcycle" depart="190.20" departLane="best" from="156709708#1" to="174555688#4"/>
    <trip id="motorcycle186" type="motorcycle_motorcycle" depart="191.23" departLane="best" from="392532443#4" to="156708407#0"/>
    <trip id="motorcycle187" type="motorcycle_motorcycle" depart="192.26" departLane="best" from="-156723051#0" to="156708418#1"/>
    <trip id="motorcycle188" type="motorcycle_motorcycle" depart="193.29" departLane="best" from="-156599184" to="48446514#2"/>
    <trip id="motorcycle189" type="motorcycle_motorcycle" depart="194.31" departLane="best" from="48446294#5" to="967396591"/>
    <trip id="motorcycle190" type="motorcycle_motorcycle" depart="195.34" departLane="best" from="211404120#1" to="1087399450"/>
    <trip id="motorcycle191" type="motorcycle_motorcycle" depart="196.37" departLane="best" from="-900221675#4" to="667344272"/>
    <trip id="motorcycle192" type="motorcycle_motorcycle" depart="197.40" departLane="best" from="-156708331" to="966900574"/>
    <trip id="motorcycle193" type="motorcycle_motorcycle" depart="198.43" departLane="best" from="899224915#2" to="902517973"/>
    <trip id="motorcycle194" type="motorcycle_motorcycle" depart="199.46" departLane="best" from="-174574825#1" to="-174574825#0"/>
    <trip id="motorcycle195" type="motorcycle_motorcycle" depart="200.48" departLane="best" from="316317141" to="-175945737#3"/>
    <trip id="motorcycle196" type="motorcycle_motorcycle" depart="201.51" departLane="best" from="-694502257#1" to="285327541"/>
    <trip id="motorcycle197" type="motorcycle_motorcycle" depart="202.54" departLane="best" from="156720161#2" to="898267177#1"/>
    <trip id="motorcycle198" type="motorcycle_motorcycle" depart="203.57" departLane="best" from="977898782#3" to="156720167#3"/>
    <trip id="motorcycle199" type="motorcycle_motorcycle" depart="204.60" departLane="best" from="-40802855#1" to="175820824#5"/>
    <trip id="motorcycle200" type="motorcycle_motorcycle" depart="205.62" departLane="best" from="-174688987#1" to="-1077371940#4"/>
    <trip id="motorcycle201" type="motorcycle_motorcycle" depart="206.65" departLane="best" from="137614898#3" to="759279109#2"/>
    <trip id="motorcycle202" type="motorcycle_motorcycle" depart="207.68" departLane="best" departSpeed="max" from="667348032" to="967091498"/>
    <trip id="motorcycle203" type="motorcycle_motorcycle" depart="208.71" departLane="best" from="175820824#4" to="489101582#1"/>
    <trip id="motorcycle204" type="motorcycle_motorcycle" depart="209.74" departLane="best" from="156599271#1" to="854382706#1"/>
    <trip id="motorcycle205" type="motorcycle_motorcycle" depart="210.76" departLane="best" from="267320973#3" to="544257071#1"/>
    <trip id="motorcycle206" type="motorcycle_motorcycle" depart="211.79" departLane="best" from="-194731750#5" to="-174550522#5"/>
    <trip id="motorcycle207" type="motorcycle_motorcycle" depart="212.82" departLane="best" from="482053736" to="-156720301#2"/>
    <trip id="motorcycle208" type="motorcycle_motorcycle" depart="213.85" departLane="best" from="156720141#1" to="-156599153#3"/>
    <trip id="motorcycle209" type="motorcycle_motorcycle" depart="214.88" departLane="best" from="-156708332#1" to="817908423#0"/>
    <trip id="motorcycle210" type="motorcycle_motorcycle" depart="215.91" departLane="best" from="156720257#1" to="1185646807"/>
    <trip id="motorcycle211" type="motorcycle_motorcycle" depart="216.93" departLane="best" from="-156723054#0" to="1072478698#5"/>
    <trip id="motorcycle212" type="motorcycle_motorcycle" depart="217.96" departLane="best" departSpeed="max" from="-156720228" to="900222353#6"/>
    <trip id="motorcycle213" type="motorcycle_motorcycle" depart="218.99" departLane="best" from="-156708341#6" to="-156708332#1"/>
    <trip id="motorcycle214" type="motorcycle_motorcycle" depart="220.02" departLane="best" from="599426616#1" to="894912159"/>
    <trip id="motorcycle215" type="motorcycle_motorcycle" depart="221.05" departLane="best" from="-900226103#0" to="314934510#0"/>