<?xml version="1.0" encoding="UTF-8"?>

<!-- generated on 2024-10-18 12:29:35.613796 by osmWebWizard.py UNKNOWN
<configuration>
    <net-file value="/home/renan/Sumo/2024-10-18-12-28-35/osm.net.xml.gz"/>
    <output-trip-file value="/home/renan/Sumo/2024-10-18-12-28-35/osm.bus.trips.xml"/>
    <route-file value="/home/renan/Sumo/2024-10-18-12-28-35/osm.bus.rou.xml"/>
    <prefix value="bus"/>
    <trip-attributes value="departLane=&quot;best&quot;"/>
    <fringe-start-attributes value="departSpeed=&quot;max&quot;"/>
    <vehicle-class value="bus"/>
    <fringe-factor value="5"/>
    <vclass value="bus"/>
    <via-edge-types value="highway.motorway,highway.motorway_link,highway.trunk_link,highway.primary_link,highway.secondary_link,highway.tertiary_link"/>
    <min-distance value="600.0"/>
    <min-distance.fringe value="10.0"/>
    <remove-loops value="True"/>
    <validate value="True"/>
    <insertion-density value="4.0"/>
</configuration>
-->

<!-- generated on 2024-10-18 12:29:28 by Eclipse SUMO duarouter Version 1.21.0
<duarouterConfiguration xmlns:xsi="http://www.w3.org/2001/XMLSchema-instance" xsi:noNamespaceSchemaLocation="http://sumo.dlr.de/xsd/duarouterConfiguration.xsd">

    <input>
        <net-file value="/home/renan/Sumo/2024-10-18-12-28-35/osm.net.xml.gz"/>
        <route-files value="/home/renan/Sumo/2024-10-18-12-28-35/osm.bus.trips.xml"/>
    </input>

    <output>
        <output-file value="/home/renan/Sumo/2024-10-18-12-28-35/osm.bus.trips.xml.tmp"/>
        <alternatives-output value="NUL"/>
        <write-trips value="true"/>
    </output>

    <processing>
        <remove-loops value="true"/>
    </processing>

    <time>
        <begin value="0.0"/>
        <end value="3600.0"/>
    </time>

    <report>
        <no-warnings value="true"/>
        <ignore-errors value="true"/>
        <no-step-log value="true"/>
    </report>

</duarouterConfiguration>
-->

<routes xmlns:xsi="http://www.w3.org/2001/XMLSchema-instance" xsi:noNamespaceSchemaLocation="http://sumo.dlr.de/xsd/routes_file.xsd">
    <vType id="bus_bus" vClass="bus"/>
    <trip id="bus0" type="bus_bus" depart="0.00" departLane="best" departSpeed="max" from="175937077#0" to="-1188363187#0"/>
    <trip id="bus1" type="bus_bus" depart="1.03" departLane="best" from="-571066483#2" to="314840849#1"/>
    <trip id="bus2" type="bus_bus" depart="2.05" departLane="best" from="-316317128#1" to="279451567#1"/>
    <trip id="bus3" type="bus_bus" depart="3.08" departLane="best" from="899224918" to="-156720243#0"/>
    <trip id="bus4" type="bus_bus" depart="4.11" departLane="best" from="156530793#1" to="-154952779#2"/>
    <trip id="bus5" type="bus_bus" depart="5.14" departLane="best" from="-314934506#2" to="156720298"/>
    <trip id="bus6" type="bus_bus" depart="6.16" departLane="best" from="1187941382" to="-175945528#0"/>
    <trip id="bus7" type="bus_bus" depart="7.19" departLane="best" departSpeed="max" from="175945528#0" to="174555533#7"/>
    <trip id="bus8" type="bus_bus" depart="8.22" departLane="best" from="-315026291#2" to="174688987#3"/>
    <trip id="bus9" type="bus_bus" depart="9.25" departLane="best" from="489101578#10" to="-1077371940#1"/>
    <trip id="bus10" type="bus_bus" depart="10.27" departLane="best" from="489067659#0" to="314932005#1"/>
    <trip id="bus11" type="bus_bus" depart="11.30" departLane="best" departSpeed="max" from="1061826289#0" to="174661179"/>
    <trip id="bus12" type="bus_bus" depart="12.33" departLane="best" from="966900770#2" to="1063744856"/>
    <trip id="bus13" type="bus_bus" depart="13.35" departLane="best" from="156720275#2" to="-156720322#0"/>
    <trip id="bus14" type="bus_bus" depart="14.38" departLane="best" from="754630208" to="175820289#3"/>
    <trip id="bus15" type="bus_bus" depart="15.41" departLane="best" from="489084318#1" to="321740726"/>
    <trip id="bus16" type="bus_bus" depart="16.44" departLane="best" departSpeed="max" from="174550519#0" to="967391484#0"/>
    <trip id="bus17" type="bus_bus" depart="17.46" departLane="best" from="1187949185#1" to="174571268"/>
    <trip id="bus18" type="bus_bus" depart="18.49" departLane="best" from="657082663#0" to="175820833#3"/>
    <trip id="bus19" type="bus_bus" depart="19.52" departLane="best" from="855187053#1" to="174659526#1"/>
    <trip id="bus20" type="bus_bus" depart="20.55" departLane="best" from="314840834#1" to="156599145#3"/>
    <trip id="bus21" type="bus_bus" depart="21.57" departLane="best" from="-315220474#0" to="-753617697"/>
    <trip id="bus22" type="bus_bus" depart="22.60" departLane="best" from="-156720166" to="-315075407#2"/>
    <trip id="bus23" type="bus_bus" depart="23.63" departLane="best" from="-156720334#0" to="-571066483#3"/>
    <trip id="bus24" type="bus_bus" depart="24.65" departLane="best" departSpeed="max" from="175820987#0" to="1155143889#0"/>
    <trip id="bus25" type="bus_bus" depart="25.68" departLane="best" from="1165047536#1" to="234222540#0"/>
    <trip id="bus26" type="bus_bus" depart="26.71" departLane="best" departSpeed="max" from="-533840751#1" to="926019079#1"/>
    <trip id="bus27" type="bus_bus" depart="27.74" departLane="best" from="175945044#2" to="-175820429"/>
    <trip id="bus28" type="bus_bus" depart="28.76" departLane="best" departSpeed="max" from="-175820548#2" to="319484995#4"/>
    <trip id="bus29" type="bus_bus" depart="29.79" departLane="best" from="-175819981#2" to="1192163989"/>
    <trip id="bus30" type="bus_bus" depart="30.82" departLane="best" from="967398960#7" to="175945744#2"/>
    <trip id="bus31" type="bus_bus" depart="31.85" departLane="best" from="174572440#5" to="313258710#2"/>
    <trip id="bus32" type="bus_bus" depart="32.87" departLane="best" from="753165193#4" to="488952612"/>
    <trip id="bus33" type="bus_bus" depart="33.90" departLane="best" from="-315392354#1" to="-154952808#1"/>
    <trip id="bus34" type="bus_bus" depart="34.93" departLane="best" from="-905289825#0" to="-489067655#4"/>
    <trip id="bus35" type="bus_bus" depart="35.95" departLane="best" from="-314840834#0" to="951359433#1"/>
    <trip id="bus36" type="bus_bus" depart="36.98" departLane="best" from="894897082" to="-905371770"/>
    <trip id="bus37" type="bus_bus" depart="38.01" departLane="best" from="175946158#1" to="137892128#0"/>
    <trip id="bus38" type="bus_bus" depart="39.04" departLane="best" from="900225014#0" to="156708368#1"/>
    <trip id="bus39" type="bus_bus" depart="40.06" departLane="best" departSpeed="max" from="-533840746" to="-316317150#0"/>
    <trip id="bus40" type="bus_bus" depart="41.09" departLane="best" departSpeed="max" from="174572453#0" to="-488952607#0"/>
    <trip id="bus41" type="bus_bus" depart="42.12" departLane="best" departSpeed="max" from="174659529#0" to="899804387"/>
    <trip id="bus42" type="bus_bus" depart="43.14" departLane="best" from="-151159983#3" to="-313319221#0"/>
    <trip id="bus43" type="bus_bus" depart="44.17" departLane="best" from="970883572#0" to="-156720324#2"/>
    <trip id="bus44" type="bus_bus" depart="45.20" departLane="best" from="-156720257#8" to="-156599153#3"/>
    <trip id="bus45" type="bus_bus" depart="46.23" departLane="best" from="-167060879" to="175937076#1"/>
    <trip id="bus46" type="bus_bus" depart="47.25" departLane="best" from="488952645#1" to="156599176"/>
    <trip id="bus47" type="bus_bus" depart="48.28" departLane="best" from="-156708331" to="1195107354"/>
    <trip id="bus48" type="bus_bus" depart="49.31" departLane="best" from="970883566#1" to="173879014#1"/>
    <trip id="bus49" type="bus_bus" depart="50.34" departLane="best" from="967092714#1" to="882171604#1"/>
    <trip id="bus50" type="bus_bus" depart="51.36" departLane="best" from="-1078232754#1" to="316317136#0"/>
    <trip id="bus51" type="bus_bus" depart="52.39" departLane="best" departSpeed="max" from="254579126" to="-174550523#1"/>
    <trip id="bus52" type="bus_bus" depart="53.42" departLane="best" departSpeed="max" from="-533840751#1" to="175945746"/>
    <trip id="bus53" type="bus_bus" depart="54.44" departLane="best" from="-167062782#1" to="156610320#1"/>
    <trip id="bus54" type="bus_bus" depart="55.47" departLane="best" from="156708332#1" to="966900602#0"/>
    <trip id="bus55" type="bus_bus" depart="56.50" departLane="best" from="894836063#2" to="-488952607#1"/>
    <trip id="bus56" type="bus_bus" depart="57.53" departLane="best" from="156720232" to="-175820824#1"/>
    <trip id="bus57" type="bus_bus" depart="58.55" departLane="best" from="900222353#1" to="895538939"/>
    <trip id="bus58" type="bus_bus" depart="59.58" departLane="best" from="-894921413" to="175945743#4"/>
    <trip id="bus59" type="bus_bus" depart="60.61" departLane="best" from="175820289#2" to="-174659556#0"/>
    <trip id="bus60" type="bus_bus" depart="61.64" departLane="best" from="40802520#0" to="-174550576#0"/>
    <trip id="bus61" type="bus_bus" depart="62.66" departLane="best" from="48446294#0" to="174550514#0"/>
    <trip id="bus62" type="bus_bus" depart="63.69" departLane="best" from="-1039501931#1" to="-964267018#0"/>
    <trip id="bus63" type="bus_bus" depart="64.72" departLane="best" from="-1078712585" to="905791761"/>
    <trip id="bus64" type="bus_bus" depart="65.74" departLane="best" from="894927048#1" to="156530753#0"/>
    <trip id="bus65" type="bus_bus" depart="66.77" departLane="best" from="-900222353#1" to="156672724#0"/>
    <trip id="bus66" type="bus_bus" depart="67.80" departLane="best" departSpeed="max" from="894927045" to="963326637"/>
    <trip id="bus67" type="bus_bus" depart="68.83" departLane="best" from="-156720227#5" to="156720154"/>
    <trip id="bus68" type="bus_bus" depart="69.85" departLane="best" from="-156708405" to="48444964#0"/>
    <trip id="bus69" type="bus_bus" depart="70.88" departLane="best" from="455778996#0" to="-174572440#5"/>
    <trip id="bus70" type="bus_bus" depart="71.91" departLane="best" from="156708429#2" to="174571262#0"/>
    <trip id="bus71" type="bus_bus" depart="72.94" departLane="best" departSpeed="max" from="-533840746" to="896084810#0"/>
    <trip id="bus72" type="bus_bus" depart="73.96" departLane="best" from="-156599150#0" to="-237065589#1"/>
    <trip id="bus73" type="bus_bus" depart="74.99" departLane="best" departSpeed="max" from="174550574" to="321740727#2"/>
    <trip id="bus74" type="bus_bus" depart="76.02" departLane="best" from="-254629119#2" to="-904103176"/>
    <trip id="bus75" type="bus_bus" depart="77.04" departLane="best" from="970883560#2" to="194731750#0"/>
    <trip id="bus76" type="bus_bus" depart="78.07" departLane="best" from="156662412#0" to="156723045"/>
    <trip id="bus77" type="bus_bus" depart="79.10" departLane="best" from="-174550523#0" to="-314840852"/>
    <trip id="bus78" type="bus_bus" depart="80.13" departLane="best" from="1039930344#5" to="174688982#0"/>
    <trip id="bus79" type="bus_bus" depart="81.15" departLane="best" from="315392356#0" to="-314838839"/>
    <trip id="bus80" type="bus_bus" depart="82.18" departLane="best" from="-156709700" to="175937092#0"/>
    <trip id="bus81" type="bus_bus" depart="83.21" departLane="best" from="-315392354#0" to="900222353#3"/>
    <trip id="bus82" type="bus_bus" depart="84.24" departLane="best" departSpeed="max" from="-314845920" to="-174572455#1"/>
    <trip id="bus83" type="bus_bus" depart="85.26" departLane="best" from="905789618#1" to="174599222#1"/>
    <trip id="bus84" type="bus_bus" depart="86.29" departLane="best" from="156708416#2" to="489067619"/>
    <trip id="bus85" type="bus_bus" depart="87.32" departLane="best" from="138620556#0" to="-175937071#1"/>
    <trip id="bus86" type="bus_bus" depart="88.34" departLane="best" from="-156720310#0" to="156599300#3"/>
    <trip id="bus87" type="bus_bus" depart="89.37" departLane="best" from="156599153#0" to="156708416#1"/>
    <trip id="bus88" type="bus_bus" depart="90.40" departLane="best" from="315220470#0" to="274710507#1"/>
    <trip id="bus89" type="bus_bus" depart="91.43" departLane="best" from="967397125" to="-156720327#0"/>
    <trip id="bus90" type="bus_bus" depart="92.45" departLane="best" departSpeed="max" from="154952789#0" to="1072478698#5"/>
    <trip id="bus91" type="bus_bus" depart="93.48" departLane="best" from="855187053#1" to="316453913#3"/>
    <trip id="bus92" type="bus_bus" depart="94.51" departLane="best" from="-175945737#2" to="156708336"/>
    <trip id="bus93" type="bus_bus" depart="95.54" departLane="best" from="156530793#0" to="-571716016#0"/>
    <trip id="bus94" type="bus_bus" depart="96.56" departLane="best" from="40801548#1" to="905034216"/>
    <trip id="bus95" type="bus_bus" depart="97.59" departLane="best" from="156698643#2" to="887832142"/>
    <trip id="bus96" type="bus_bus" depart="98.62" departLane="best" from="174571256#2" to="-156599238#2"/>
    <trip id="bus98" type="bus_bus" depart="100.67" departLane="best" from="967090456#5" to="905665631#1"/>
    <trip id="bus99" type="bus_bus" depart="101.70" departLane="best" from="754635698#1" to="-175820283"/>
    <trip id="bus100" type="bus_bus" depart="102.73" departLane="best" from="156709714#0" to="-254579126"/>
    <trip id="bus101" type="bus_bus" depart="103.75" departLane="best" departSpeed="max" from="154952787#0" to="-156672725#0"/>
    <!-- <trip id="bus102" type="bus_bus" depart="104.78" departLane="best" from="1187969059" to="967398418#0"/>
    <trip id="bus103" type="bus_bus" depart="105.81" departLane="best" departSpeed="max" from="-533840747" to="489067613#0"/>
    <trip id="bus104" type="bus_bus" depart="106.83" departLane="best" departSpeed="max" from="156708341#0" to="156599180"/>
    <trip id="bus105" type="bus_bus" depart="107.86" departLane="best" from="966900770#2" to="970883569#0"/>
    <trip id="bus106" type="bus_bus" depart="108.89" departLane="best" from="-174571521#2" to="315392363"/>
    <trip id="bus107" type="bus_bus" depart="109.92" departLane="best" departSpeed="max" from="-174687947#1" to="894186139"/>
    <trip id="bus108" type="bus_bus" depart="110.94" departLane="best" from="472039695#0" to="-174659556#1"/>
    <trip id="bus109" type="bus_bus" depart="111.97" departLane="best" from="174550620" to="40801558#1"/>
    <trip id="bus110" type="bus_bus" depart="113.00" departLane="best" from="-156599276#4" to="174687952#0"/>
    <trip id="bus111" type="bus_bus" depart="114.03" departLane="best" from="156720257#12" to="855187051#2"/>
    <trip id="bus112" type="bus_bus" depart="115.05" departLane="best" from="-174688987#2" to="967086697#0"/>
    <trip id="bus113" type="bus_bus" depart="116.08" departLane="best" from="-156720167#1" to="-175820951#1"/>
    <trip id="bus115" type="bus_bus" depart="118.13" departLane="best" from="316317144#4" to="-174555687#4"/>
    <trip id="bus116" type="bus_bus" depart="119.16" departLane="best" from="174688982#1" to="-175820837#2"/>
    <trip id="bus117" type="bus_bus" depart="120.19" departLane="best" departSpeed="max" from="156530770" to="174687942#3"/>
    <trip id="bus118" type="bus_bus" depart="121.22" departLane="best" from="156723044#3" to="906189360"/>
    <trip id="bus119" type="bus_bus" depart="122.24" departLane="best" from="313258706#1" to="315392354#3"/>
    <trip id="bus120" type="bus_bus" depart="123.27" departLane="best" departSpeed="max" from="-316425279#1" to="137892128#2"/>
    <trip id="bus121" type="bus_bus" depart="124.30" departLane="best" departSpeed="max" from="211467938#0" to="-895398088#0"/>
    <trip id="bus122" type="bus_bus" depart="125.33" departLane="best" departSpeed="max" from="-156709702#3" to="156708366#1"/>
    <trip id="bus123" type="bus_bus" depart="126.35" departLane="best" from="977095539" to="970883572#0"/>
    <trip id="bus124" type="bus_bus" depart="127.38" departLane="best" from="-156709707#4" to="-254579126"/>
    <trip id="bus125" type="bus_bus" depart="128.41" departLane="best" departSpeed="max" from="-533840747" to="211404489#1"/>
    <trip id="bus126" type="bus_bus" depart="129.43" departLane="best" from="896014636#0" to="899220340#2"/>
    <trip id="bus127" type="bus_bus" depart="130.46" departLane="best" from="1155144150" to="-174688263"/>
    <trip id="bus128" type="bus_bus" depart="131.49" departLane="best" from="667348036#0" to="315026290"/>
    <trip id="bus129" type="bus_bus" depart="132.52" departLane="best" from="175820420#0" to="967398960#2"/>
    <trip id="bus130" type="bus_bus" depart="133.54" departLane="best" from="175945747" to="-1077373860#0"/>
    <trip id="bus132" type="bus_bus" depart="135.60" departLane="best" from="-194731750#1" to="936136147#0"/>
    <trip id="bus133" type="bus_bus" depart="136.63" departLane="best" from="-174572455#1" to="-174550519#1"/>
    <trip id="bus134" type="bus_bus" depart="137.65" departLane="best" departSpeed="max" from="-156723052#3" to="174572439#2"/>
    <trip id="bus135" type="bus_bus" depart="138.68" departLane="best" from="-533946215" to="175820293#0"/>
    <trip id="bus136" type="bus_bus" depart="139.71" departLane="best" from="314934512#0" to="-175946283#0"/>
    <trip id="bus137" type="bus_bus" depart="140.73" departLane="best" from="175820982#0" to="-488952645#0"/>
    <trip id="bus138" type="bus_bus" depart="141.76" departLane="best" from="156720147#1" to="900222353#2"/>
    <trip id="bus139" type="bus_bus" depart="142.79" departLane="best" from="754628245#1" to="156720290#1"/>
    <trip id="bus140" type="bus_bus" depart="143.82" departLane="best" from="156599153#0" to="-533946215"/>
    <trip id="bus141" type="bus_bus" depart="144.84" departLane="best" from="1072472445#6" to="48446497#1"/>
    <trip id="bus142" type="bus_bus" depart="145.87" departLane="best" departSpeed="max" from="175937070#0" to="-482053732"/>
    <trip id="bus143" type="bus_bus" depart="146.90" departLane="best" from="237062380#1" to="-1078068342#2"/>
    <trip id="bus144" type="bus_bus" depart="147.93" departLane="best" from="-156709712#3" to="899225521#0"/>
    <trip id="bus145" type="bus_bus" depart="148.95" departLane="best" from="967391488#3" to="-174555687#1"/>
    <trip id="bus146" type="bus_bus" depart="149.98" departLane="best" from="673024600" to="174662952"/>
    <trip id="bus147" type="bus_bus" depart="151.01" departLane="best" from="489067603#5" to="882171604#1"/>
    <trip id="bus148" type="bus_bus" depart="152.03" departLane="best" from="899242851#1" to="-234222542#0"/>
    <trip id="bus149" type="bus_bus" depart="153.06" departLane="best" departSpeed="max" from="-40801490#6" to="-156720372"/>
    <trip id="bus150" type="bus_bus" depart="154.09" departLane="best" from="48446336#5" to="899229876#3"/>
    <trip id="bus151" type="bus_bus" depart="155.12" departLane="best" from="154952832#3" to="175820839"/>
    <trip id="bus152" type="bus_bus" depart="156.14" departLane="best" departSpeed="max" from="-174687947#1" to="905879226#2"/>
    <trip id="bus153" type="bus_bus" depart="157.17" departLane="best" from="489101578#8" to="899224915#1"/>
    <trip id="bus154" type="bus_bus" depart="158.20" departLane="best" from="-1176925202#0" to="37051130#2"/>
    <trip id="bus155" type="bus_bus" depart="159.23" departLane="best" from="-968239941#5" to="905879230#0"/>
    <trip id="bus156" type="bus_bus" depart="160.25" departLane="best" from="489067643#0" to="-893736291#2"/>
    <trip id="bus157" type="bus_bus" depart="161.28" departLane="best" from="489101578#8" to="-489067622#0"/>
    <trip id="bus158" type="bus_bus" depart="162.31" departLane="best" from="48446514#3" to="167061172#0"/>
    <trip id="bus159" type="bus_bus" depart="163.33" departLane="best" from="893296483" to="880915335"/>
    <trip id="bus160" type="bus_bus" depart="164.36" departLane="best" from="-315075407#0" to="571764289#1"/>
    <trip id="bus161" type="bus_bus" depart="165.39" departLane="best" from="156708354#2" to="899482625"/>
    <trip id="bus162" type="bus_bus" depart="166.42" departLane="best" from="1085873196" to="-175937088#0"/>
    <trip id="bus164" type="bus_bus" depart="168.47" departLane="best" from="967090030#1" to="599936267#1"/>
    <trip id="bus165" type="bus_bus" depart="169.50" departLane="best" from="175937086#2" to="154952779#0"/>
    <trip id="bus166" type="bus_bus" depart="170.52" departLane="best" from="967395502#2" to="-174550522#2"/>
    <trip id="bus167" type="bus_bus" depart="171.55" departLane="best" from="905879234#1" to="-174550519#1"/>
    <trip id="bus168" type="bus_bus" depart="172.58" departLane="best" from="967091503#3" to="-175820824#1"/>
    <trip id="bus169" type="bus_bus" depart="173.61" departLane="best" from="967087246#1" to="-488952658#3"/>
    <trip id="bus170" type="bus_bus" depart="174.63" departLane="best" from="-156723054#3" to="156610085#4"/>
    <trip id="bus171" type="bus_bus" depart="175.66" departLane="best" from="175820280#4" to="156720331#1"/>
    <trip id="bus172" type="bus_bus" depart="176.69" departLane="best" from="1214793493#3" to="174659525"/>
    <trip id="bus173" type="bus_bus" depart="177.72" departLane="best" from="-482053732" to="315075415#0"/>
    <trip id="bus174" type="bus_bus" depart="178.74" departLane="best" from="-1063744855#0" to="905424357#0"/>
    <trip id="bus175" type="bus_bus" depart="179.77" departLane="best" from="-174550526#2" to="316317122"/>
    <trip id="bus176" type="bus_bus" depart="180.80" departLane="best" departSpeed="max" from="316317153#0" to="265346283#0"/>
    <trip id="bus177" type="bus_bus" depart="181.82" departLane="best" from="1086299772" to="-156709687"/>
    <trip id="bus178" type="bus_bus" depart="182.85" departLane="best" departSpeed="max" from="204052437" to="1039616649#1"/>
    <trip id="bus179" type="bus_bus" depart="183.88" departLane="best" from="904990319#2" to="844390819#1"/>
    <trip id="bus180" type="bus_bus" depart="184.91" departLane="best" from="-315026291#8" to="-895398088#2"/>
    <trip id="bus181" type="bus_bus" depart="185.93" departLane="best" departSpeed="max" from="-900226103#2" to="154952925#1"/>
    <trip id="bus182" type="bus_bus" depart="186.96" departLane="best" departSpeed="max" from="154952789#0" to="-893736291#0"/>
    <trip id="bus183" type="bus_bus" depart="187.99" departLane="best" from="-174571259#0" to="156599153#2"/>
    <trip id="bus184" type="bus_bus" depart="189.02" departLane="best" from="905947787" to="279451569#1"/>
    <trip id="bus185" type="bus_bus" depart="190.04" departLane="best" from="899483378#3" to="175820829"/>
    <trip id="bus186" type="bus_bus" depart="191.07" departLane="best" from="896084809#3" to="174570536#1"/>
    <trip id="bus187" type="bus_bus" depart="192.10" departLane="best" from="-1039501931#0" to="751348719#1"/>
    <trip id="bus188" type="bus_bus" depart="193.12" departLane="best" departSpeed="max" from="156599276#0" to="174659562#0"/>
    <trip id="bus189" type="bus_bus" depart="194.15" departLane="best" from="175946155#1" to="156708404"/>
    <trip id="bus190" type="bus_bus" depart="195.18" departLane="best" from="156672725#1" to="-254579126"/>
    <trip id="bus191" type="bus_bus" depart="196.21" departLane="best" from="156708417#3" to="900157341#0"/>
    <trip id="bus192" type="bus_bus" depart="197.23" departLane="best" from="489067603#4" to="-175820422#2"/>
    <trip id="bus193" type="bus_bus" depart="198.26" departLane="best" from="-156720218" to="156720362#0"/>
    <trip id="bus194" type="bus_bus" depart="199.29" departLane="best" from="175820951#1" to="1061826295#1"/>
    <trip id="bus196" type="bus_bus" depart="201.34" departLane="best" from="211489457#2" to="-314840852"/>
    <trip id="bus197" type="bus_bus" depart="202.37" departLane="best" from="-237008593#1" to="-1188363187#0"/>
    <trip id="bus198" type="bus_bus" depart="203.40" departLane="best" departSpeed="max" from="-379742188" to="156709694"/>
    <trip id="bus199" type="bus_bus" depart="204.42" departLane="best" from="772103532#3" to="-156709708#4"/>
    <trip id="bus200" type="bus_bus" depart="205.45" departLane="best" from="154952931#3" to="175937088#0"/>
    <trip id="bus201" type="bus_bus" depart="206.48" departLane="best" from="156672722" to="314845927"/>
    <trip id="bus202" type="bus_bus" depart="207.51" departLane="best" from="156720184#2" to="316317138#1"/>
    <trip id="bus203" type="bus_bus" depart="208.53" departLane="best" departSpeed="max" from="175946283#0" to="-1076220170"/>
    <trip id="bus204" type="bus_bus" depart="209.56" departLane="best" from="363490227" to="48446483#1"/>
    <trip id="bus205" type="bus_bus" depart="210.59" departLane="best" departSpeed="max" from="-156723052#3" to="156599205#1"/>
    <trip id="bus206" type="bus_bus" depart="211.62" departLane="best" from="-175820830#1" to="966902514#0"/>
    <trip id="bus207" type="bus_bus" depart="212.64" departLane="best" from="156720343#1" to="-156599211#0"/>
    <trip id="bus208" type="bus_bus" depart="213.67" departLane="best" departSpeed="max" from="-40801490#6" to="844390820#0"/>
    <trip id="bus209" type="bus_bus" depart="214.70" departLane="best" from="156708342" to="533840746"/>
    <trip id="bus210" type="bus_bus" depart="215.72" departLane="best" from="211401505#0" to="967398960#6"/>
    <trip id="bus212" type="bus_bus" depart="217.78" departLane="best" from="899224915#2" to="175820823#1"/>
    <trip id="bus213" type="bus_bus" depart="218.81" departLane="best" from="315026291#4" to="156720295"/>
    <trip id="bus214" type="bus_bus" depart="219.83" departLane="best" from="667344273#0" to="174570536#1"/>
    <trip id="bus215" type="bus_bus" depart="220.86" departLane="best" from="899235764#3" to="40753532#1"/>
    <trip id="bus216" type="bus_bus" depart="221.89" departLane="best" from="156708423#1" to="-40802855#0"/>
    <trip id="bus217" type="bus_bus" depart="222.92" departLane="best" from="-392532447#0" to="-316317142#0"/>
    <trip id="bus218" type="bus_bus" depart="223.94" departLane="best" from="455778996#0" to="156723054#1"/>
    <trip id="bus220" type="bus_bus" depart="226.00" departLane="best" from="-156709954#1" to="-751345621#1"/>
    <trip id="bus221" type="bus_bus" depart="227.02" departLane="best" departSpeed="max" from="-533934745#1" to="-936134588"/>
    <trip id="bus222" type="bus_bus" depart="228.05" departLane="best" from="174550575#1" to="-174574830"/>
    <trip id="bus223" type="bus_bus" depart="229.08" departLane="best" from="-315392364#4" to="314845920"/>
    <trip id="bus224" type="bus_bus" depart="230.11" departLane="best" from="-314840846#0" to="-156708341#0"/>
    <trip id="bus225" type="bus_bus" depart="231.13" departLane="best" from="154952864#0" to="174555530#1"/>
    <trip id="bus226" type="bus_bus" depart="232.16" departLane="best" from="156530751#1" to="194731750#3"/>
    <trip id="bus227" type="bus_bus" depart="233.19" departLane="best" from="156530784#3" to="900222337#1"/>
    <trip id="bus228" type="bus_bus" depart="234.21" departLane="best" from="174659525" to="314845926#2"/>
    <trip id="bus229" type="bus_bus" depart="235.24" departLane="best" from="844390832" to="48446294#7"/>
    <trip id="bus230" type="bus_bus" depart="236.27" departLane="best" from="1188194080#0" to="-1076220170"/>
    <trip id="bus231" type="bus_bus" depart="237.30" departLane="best" from="1077373860#0" to="40802855#4"/>
    <trip id="bus232" type="bus_bus" depart="238.32" departLane="best" from="817908423#0" to="544257071#0"/>
    <trip id="bus233" type="bus_bus" depart="239.35" departLane="best" departSpeed="max" from="156530770" to="-40801548#2"/>
    <trip id="bus234" type="bus_bus" depart="240.38" departLane="best" from="174555534#0" to="175820288#1"/>
    <trip id="bus235" type="bus_bus" depart="241.41" departLane="best" from="-315026291#3" to="314798615#0"/>
    <trip id="bus236" type="bus_bus" depart="242.43" departLane="best" from="156610052#6" to="151159983#4"/>
    <trip id="bus237" type="bus_bus" depart="243.46" departLane="best" departSpeed="max" from="1039616649#0" to="286522070#0"/>
    <trip id="bus238" type="bus_bus" depart="244.49" departLane="best" from="154952808#1" to="-175819981#1"/>
    <trip id="bus239" type="bus_bus" depart="245.51" departLane="best" departSpeed="max" from="156708383" to="174572440#0"/>
    <trip id="bus240" type="bus_bus" depart="246.54" departLane="best" from="137417494#1" to="174599189#1"/>
    <trip id="bus241" type="bus_bus" depart="247.57" departLane="best" departSpeed="max" from="-1187969508" to="175946158#0"/>
    <trip id="bus242" type="bus_bus" depart="248.60" departLane="best" from="174572460#0" to="156708377#2"/>
    <trip id="bus243" type="bus_bus" depart="249.62" departLane="best" from="-156599153#5" to="1190074813"/>
    <trip id="bus244" type="bus_bus" depart="250.65" departLane="best" from="-314840835#1" to="-967396905#6"/>
    <trip id="bus245" type="bus_bus" depart="251.68" departLane="best" from="-40801952#3" to="1190074813"/>
    <trip id="bus246" type="bus_bus" depart="252.71" departLane="best" from="37051130#3" to="-751345621#2"/>
    <trip id="bus247" type="bus_bus" depart="253.73" departLane="best" from="40802025#0" to="-156720191"/>
    <trip id="bus248" type="bus_bus" depart="254.76" departLane="best" from="-1078712584#3" to="-174550576#0"/>
    <trip id="bus249" type="bus_bus" depart="255.79" departLane="best" from="900565242#2" to="-1078358941#1"/>
    <trip id="bus250" type="bus_bus" depart="256.81" departLane="best" departSpeed="max" from="175945528#0" to="489067603#2"/>
    <trip id="bus251" type="bus_bus" depart="257.84" departLane="best" departSpeed="max" from="175945740#0" to="967090456#3"/>
    <trip id="bus253" type="bus_bus" depart="259.90" departLane="best" from="-174570532#0" to="254629127#0"/>
    <trip id="bus254" type="bus_bus" depart="260.92" departLane="best" from="174572459#0" to="-313258706#1"/>
    <trip id="bus255" type="bus_bus" depart="261.95" departLane="best" from="294777991#3" to="48446405#3"/>
    <trip id="bus256" type="bus_bus" depart="262.98" departLane="best" from="360758932#4" to="-174550517#0"/>
    <trip id="bus257" type="bus_bus" depart="264.01" departLane="best" from="-156723054#1" to="-1201209643"/>