<?xml version="1.0" encoding="UTF-8"?>

<!-- generated on 2024-10-18 12:30:30.224825 by osmWebWizard.py UNKNOWN
<configuration>
    <net-file value="/home/renan/Sumo/2024-10-18-12-28-35/osm.net.xml.gz"/>
    <output-trip-file value="/home/renan/Sumo/2024-10-18-12-28-35/osm.passenger.trips.xml"/>
    <route-file value="/home/renan/Sumo/2024-10-18-12-28-35/osm.passenger.rou.xml"/>
    <prefix value="veh"/>
    <trip-attributes value="departLane=&quot;best&quot;"/>
    <fringe-start-attributes value="departSpeed=&quot;max&quot;"/>
    <vehicle-class value="passenger"/>
    <lanes value="True"/>
    <fringe-factor value="5"/>
    <allow-fringe.min-length value="1000.0"/>
    <via-edge-types value="highway.motorway,highway.motorway_link,highway.trunk_link,highway.primary_link,highway.secondary_link,highway.tertiary_link"/>
    <min-distance value="300.0"/>
    <min-distance.fringe value="10.0"/>
    <remove-loops value="True"/>
    <validate value="True"/>
    <insertion-density value="12.0"/>
</configuration>
-->

<!-- generated on 2024-10-18 12:30:09 by Eclipse SUMO duarouter Version 1.21.0
<duarouterConfiguration xmlns:xsi="http://www.w3.org/2001/XMLSchema-instance" xsi:noNamespaceSchemaLocation="http://sumo.dlr.de/xsd/duarouterConfiguration.xsd">

    <input>
        <net-file value="/home/renan/Sumo/2024-10-18-12-28-35/osm.net.xml.gz"/>
        <route-files value="/home/renan/Sumo/2024-10-18-12-28-35/osm.passenger.trips.xml"/>
    </input>

    <output>
        <output-file value="/home/renan/Sumo/2024-10-18-12-28-35/osm.passenger.trips.xml.tmp"/>
        <alternatives-output value="NUL"/>
        <write-trips value="true"/>
    </output>

    <processing>
        <remove-loops value="true"/>
    </processing>

    <time>
        <begin value="0.0"/>
        <end value="3600.0"/>
    </time>

    <report>
        <no-warnings value="true"/>
        <ignore-errors value="true"/>
        <no-step-log value="true"/>
    </report>

</duarouterConfiguration>
-->

<routes xmlns:xsi="http://www.w3.org/2001/XMLSchema-instance" xsi:noNamespaceSchemaLocation="http://sumo.dlr.de/xsd/routes_file.xsd">

    <vType id="veh_passenger" vClass = "passenger" accel="1.3" decel="3.0" sigma="0.5" minGap="3.0" maxSpeed="50" >
        <param key="device.rerouting.probability" value="1.0"/>
        <param key="device.rerouting.adaptation-steps" value="18"/>
        <param key="device.rerouting.adaptation-interval" value="10"/>
    </vType>

    <vType id="veh_pushy" vClass = "passenger" accel="2" decel="4" sigma="0.8" minGap="1" maxSpeed="50" lcPushy="0.9" lcCooperative="0.1">
        <param key="device.rerouting.probability" value="1.0"/>
        <param key="device.rerouting.adaptation-steps" value="18"/>
        <param key="device.rerouting.adaptation-interval" value="10"/>
    </vType>

    <trip id="veh0" type="veh_passenger" depart="0.00" departLane="best" from="204052440#1" to="-151159983#3"/>
    <trip id="veh1" type="veh_pushy" depart="0.5" departLane="best" from="204052440#1" to="-151159983#3"/>
    <trip id="veh2" type="veh_passenger" depart="0.69" departLane="best" from="40802481#0" to="314934507#1"/>
    <trip id="veh3" type="veh_passenger" depart="1.03" departLane="best" from="899804385" to="-156720307#0"/>
    <trip id="veh4" type="veh_passenger" depart="1.37" departLane="best" from="156708299#2" to="-154952858"/>
    <trip id="veh5" type="veh_passenger" depart="1.71" departLane="best" from="-316317131#0" to="167061172#1"/>
    <trip id="veh7" type="veh_passenger" depart="2.40" departLane="best" from="-237065568#2" to="174599204#1"/>
    <trip id="veh8" type="veh_passenger" depart="2.74" departLane="best" from="-316317142#0" to="175820824#2"/>
    <trip id="veh9" type="veh_passenger" depart="3.09" departLane="best" from="-667334072#1" to="-1077373074#1"/>
    <trip id="veh10" type="veh_passenger" depart="3.43" departLane="best" from="599426616#1" to="-316317142#0"/>
    <trip id="veh11" type="veh_passenger" depart="3.77" departLane="best" from="1087399450" to="-175819984#0"/>
    <trip id="veh13" type="veh_passenger" depart="4.46" departLane="best" from="156720324#3" to="-156723046"/>
    <trip id="veh14" type="veh_passenger" depart="4.80" departLane="best" from="880895471" to="175937077#1"/>
    <trip id="veh16" type="veh_passenger" depart="5.49" departLane="best" departSpeed="max" from="174572456#0" to="967391484#3"/>
    <trip id="veh17" type="veh_passenger" depart="5.83" departLane="best" departSpeed="max" from="154952808#0" to="174599241#0"/>
    <trip id="veh18" type="veh_passenger" depart="6.17" departLane="best" from="772103533" to="-175946155#3"/>
    <trip id="veh19" type="veh_passenger" depart="6.52" departLane="best" from="896084808" to="175820282#0"/>
    <trip id="veh20" type="veh_passenger" depart="6.86" departLane="best" from="315392354#0" to="-156599211#0"/>
    <trip id="veh21" type="veh_passenger" depart="7.20" departLane="best" departSpeed="max" from="-362775138" to="-904990319#2"/>
    <trip id="veh22" type="veh_passenger" depart="7.54" departLane="best" from="-156720210" to="-316317150#1"/>
    <trip id="veh23" type="veh_passenger" depart="7.89" departLane="best" departSpeed="max" from="-156723052#3" to="-894927045"/>
    <trip id="veh24" type="veh_passenger" depart="8.23" departLane="best" from="194731736" to="-1222275265#1"/>
    <trip id="veh25" type="veh_passenger" depart="8.57" departLane="best" from="137614898#3" to="314840834#3"/>
    <trip id="veh26" type="veh_passenger" depart="8.92" departLane="best" from="-753617595" to="954392003#1"/>
    <trip id="veh27" type="veh_passenger" depart="9.26" departLane="best" from="237005918" to="175937097#2"/>
    <trip id="veh28" type="veh_passenger" depart="9.60" departLane="best" departSpeed="max" from="-175820982#3" to="472039695#2"/>
    <trip id="veh29" type="veh_passenger" depart="9.94" departLane="best" from="-175820824#11" to="154952779#5"/>
    <trip id="veh30" type="veh_passenger" depart="10.29" departLane="best" from="967398960#1" to="899224916#0"/>
    <trip id="veh31" type="veh_passenger" depart="10.63" departLane="best" from="174599965#0" to="315075415#1"/>
    <trip id="veh32" type="veh_passenger" depart="10.97" departLane="best" from="855187053#0" to="489101578#9"/>
    <trip id="veh33" type="veh_passenger" depart="11.32" departLane="best" departSpeed="max" from="-379730731" to="-154952912#0"/>
    <trip id="veh34" type="veh_passenger" depart="11.66" departLane="best" from="1061826294#0" to="-751346016#6"/>
    <trip id="veh35" type="veh_passenger" depart="12.00" departLane="best" from="315075418#1" to="966896029#4"/>
    <trip id="veh36" type="veh_passenger" depart="12.34" departLane="best" from="899224920#1" to="1072472445#7"/>
    <trip id="veh37" type="veh_passenger" depart="12.69" departLane="best" departSpeed="max" from="254579126" to="156530785#1"/>
    <trip id="veh38" type="veh_passenger" depart="13.03" departLane="best" from="900565326#4" to="-156709687"/>
    <trip id="veh39" type="veh_passenger" depart="13.37" departLane="best" from="-751348719#1" to="-482053703"/>
    <trip id="veh40" type="veh_passenger" depart="13.72" departLane="best" from="174659559#1" to="-667348032"/>
    <trip id="veh41" type="veh_passenger" depart="14.06" departLane="best" from="175820418#1" to="900225413#1"/>
    <trip id="veh42" type="veh_passenger" depart="14.40" departLane="best" from="156599153#3" to="-315075407#2"/>
    <trip id="veh43" type="veh_passenger" depart="14.75" departLane="best" from="972591097" to="173879013#2"/>
    <trip id="veh44" type="veh_passenger" depart="15.09" departLane="best" from="-156720310#2" to="-156599273#0"/>
    <trip id="veh45" type="veh_passenger" depart="15.43" departLane="best" from="-174550516#0" to="194731750#6"/>
    <trip id="veh46" type="veh_passenger" depart="15.77" departLane="best" from="489101588#1" to="156708298#0"/>
    <trip id="veh47" type="veh_passenger" depart="16.12" departLane="best" from="-156708348#1" to="154952817#1"/>
    <trip id="veh48" type="veh_passenger" depart="16.46" departLane="best" from="970883564#0" to="174571521#0"/>
    <trip id="veh49" type="veh_passenger" depart="16.80" departLane="best" departSpeed="max" from="967092732" to="899220340#5"/>
    <trip id="veh50" type="veh_passenger" depart="17.15" departLane="best" from="-1078358942#0" to="40801490#3"/>
    <trip id="veh51" type="veh_passenger" depart="17.49" departLane="best" departSpeed="max" from="314840852" to="174574385"/>
    <trip id="veh53" type="veh_passenger" depart="18.17" departLane="best" from="-174550519#1" to="156708348#0"/>
    <trip id="veh54" type="veh_passenger" depart="18.52" departLane="best" from="156708423#2" to="966900770#0"/>
    <trip id="veh55" type="veh_passenger" depart="18.86" departLane="best" from="899224918" to="667348034#1"/>
    <trip id="veh56" type="veh_passenger" depart="19.20" departLane="best" from="-156723052#1" to="-175820987#2"/>
    <trip id="veh57" type="veh_passenger" depart="19.55" departLane="best" from="900405124#1" to="899229878#8"/>
    <trip id="veh58" type="veh_passenger" depart="19.89" departLane="best" departSpeed="max" from="175820987#0" to="175819913#2"/>
    <trip id="veh59" type="veh_passenger" depart="20.23" departLane="best" from="48446497#0" to="174574824#1"/>
    <trip id="veh60" type="veh_passenger" depart="20.57" departLane="best" from="489067628" to="174572439#2"/>
    <trip id="veh61" type="veh_passenger" depart="20.92" departLane="best" from="-1039501931#1" to="-1077373860#1"/>
    <trip id="veh62" type="veh_passenger" depart="21.26" departLane="best" departSpeed="max" from="-1079235987#1" to="923973066#0"/>
    <trip id="veh63" type="veh_passenger" depart="21.60" departLane="best" from="899229876#3" to="855187051#5"/>
    <trip id="veh64" type="veh_passenger" depart="21.95" departLane="best" from="1039614063#2" to="-156708328"/>
    <trip id="veh65" type="veh_passenger" depart="22.29" departLane="best" from="899225524#1" to="966900575#0"/>
    <trip id="veh66" type="veh_passenger" depart="22.63" departLane="best" from="156720257#7" to="156720292"/>
    <trip id="veh67" type="veh_passenger" depart="22.97" departLane="best" departSpeed="max" from="-156709702#3" to="489067605#2"/>
    <trip id="veh68" type="veh_passenger" depart="23.32" departLane="best" from="48448035#0" to="-174574830"/>
    <trip id="veh69" type="veh_passenger" depart="23.66" departLane="best" from="-156720210" to="174599226"/>
    <trip id="veh70" type="veh_passenger" depart="24.00" departLane="best" from="751348720" to="899235763#0"/>
    <trip id="veh71" type="veh_passenger" depart="24.35" departLane="best" from="-156708303#3" to="-314840850#1"/>
    <trip id="veh72" type="veh_passenger" depart="24.69" departLane="best" from="174574391#1" to="482053669#2"/>
    <trip id="veh73" type="veh_passenger" depart="25.03" departLane="best" from="-314840849#0" to="1061826294#1"/>
    <trip id="veh75" type="veh_passenger" depart="25.72" departLane="best" from="177317382#2" to="-174550523#1"/>
    <!-- <trip id="veh76" type="veh_passenger" depart="26.06" departLane="best" from="-174572439#1" to="-315392354#1"/>
    <trip id="veh77" type="veh_passenger" depart="26.40" departLane="best" from="1086300872#0" to="175820823#2"/>
    <trip id="veh78" type="veh_passenger" depart="26.75" departLane="best" departSpeed="max" from="-379742188" to="315075417#1"/>
    <trip id="veh79" type="veh_passenger" depart="27.09" departLane="best" from="-156709710#0" to="211401505#3"/>
    <trip id="veh80" type="veh_passenger" depart="27.43" departLane="best" departSpeed="max" from="-379730731" to="900405123#1"/>
    <trip id="veh81" type="veh_passenger" depart="27.78" departLane="best" from="894927048#1" to="-156709954#0"/>
    <trip id="veh82" type="veh_passenger" depart="28.12" departLane="best" from="-482053699#0" to="314845918#0"/>
    <trip id="veh83" type="veh_passenger" depart="28.46" departLane="best" from="-315220470#4" to="174599200#1"/>
    <trip id="veh84" type="veh_passenger" depart="28.80" departLane="best" from="923973066#4" to="175819913#4"/>
    <trip id="veh85" type="veh_passenger" depart="29.15" departLane="best" from="156720176#2" to="533946203"/>
    <trip id="veh86" type="veh_passenger" depart="29.49" departLane="best" from="634042770#2" to="175945737#1"/>
    <trip id="veh87" type="veh_passenger" depart="29.83" departLane="best" from="156720361#2" to="156708339#1"/>
    <trip id="veh88" type="veh_passenger" depart="30.18" departLane="best" from="156708312#1" to="-1078681371#0"/>
    <trip id="veh89" type="veh_passenger" depart="30.52" departLane="best" departSpeed="max" from="40721203" to="314932003"/>
    <trip id="veh90" type="veh_passenger" depart="30.86" departLane="best" from="967397641" to="-156723053#2"/>
    <trip id="veh91" type="veh_passenger" depart="31.20" departLane="best" departSpeed="max" from="156599211#0" to="1087399446#3"/>
    <trip id="veh92" type="veh_passenger" depart="31.55" departLane="best" from="896084808" to="488952607#2"/>
    <trip id="veh93" type="veh_passenger" depart="31.89" departLane="best" from="237065589#1" to="-156708405"/>
    <trip id="veh94" type="veh_passenger" depart="32.23" departLane="best" from="156708299#2" to="-895398088#0"/>
    <trip id="veh96" type="veh_passenger" depart="32.92" departLane="best" from="211404493#1" to="899220340#7"/>
    <trip id="veh97" type="veh_passenger" depart="33.26" departLane="best" from="174599208#0" to="-156599300#0"/>
    <trip id="veh98" type="veh_passenger" depart="33.61" departLane="best" from="977898782#2" to="863539298#1"/>
    <trip id="veh99" type="veh_passenger" depart="33.95" departLane="best" from="967092717#0" to="211404489#1"/>
    <trip id="veh100" type="veh_passenger" depart="34.29" departLane="best" departSpeed="max" from="882163037" to="-175820558"/>
    <trip id="veh101" type="veh_passenger" depart="34.63" departLane="best" from="-156720293" to="314845930"/>
    <trip id="veh102" type="veh_passenger" depart="34.98" departLane="best" departSpeed="max" from="156599205#0" to="156708331"/>
    <trip id="veh103" type="veh_passenger" depart="35.32" departLane="best" from="154952816#1" to="967397649#0"/>
    <trip id="veh104" type="veh_passenger" depart="35.66" departLane="best" departSpeed="max" from="-751956251" to="533934745#1"/>
    <trip id="veh105" type="veh_passenger" depart="36.01" departLane="best" from="156708433#0" to="156708303#2"/>
    <trip id="veh106" type="veh_passenger" depart="36.35" departLane="best" from="967073719#0" to="970883560#0"/>
    <trip id="veh107" type="veh_passenger" depart="36.69" departLane="best" from="174599230#1" to="40753532#1"/>
    <trip id="veh108" type="veh_passenger" depart="37.03" departLane="best" from="-175820271" to="-950223343#3"/>
    <trip id="veh109" type="veh_passenger" depart="37.38" departLane="best" from="967092715" to="175820288#0"/>
    <trip id="veh110" type="veh_passenger" depart="37.72" departLane="best" departSpeed="max" from="174574825#0" to="48446494#1"/>
    <trip id="veh111" type="veh_passenger" depart="38.06" departLane="best" from="-156672718#1" to="175820427#1"/>
    <trip id="veh112" type="veh_passenger" depart="38.41" departLane="best" from="167060879" to="896084812#1"/>
    <trip id="veh113" type="veh_passenger" depart="38.75" departLane="best" departSpeed="max" from="-175820422#3" to="967089080"/>
    <trip id="veh114" type="veh_passenger" depart="39.09" departLane="best" departSpeed="max" from="-156720216" to="-175945037#1"/>
    <trip id="veh115" type="veh_passenger" depart="39.43" departLane="best" from="175820823#3" to="314933871#1"/>
    <trip id="veh116" type="veh_passenger" depart="39.78" departLane="best" from="-40801952#0" to="-174572451#0"/>
    <trip id="veh117" type="veh_passenger" depart="40.12" departLane="best" from="899483378#2" to="482053702"/>
    <trip id="veh118" type="veh_passenger" depart="40.46" departLane="best" from="175820823#0" to="175946159#1"/>
    <trip id="veh119" type="veh_passenger" depart="40.81" departLane="best" from="156672726#3" to="175820427#1"/>
    <trip id="veh120" type="veh_passenger" depart="41.15" departLane="best" departSpeed="max" from="174571253#0" to="950223343#3"/>
    <trip id="veh121" type="veh_passenger" depart="41.49" departLane="best" departSpeed="max" from="-314845927" to="392532468"/>
    <trip id="veh122" type="veh_passenger" depart="41.84" departLane="best" from="-48446414#0" to="-156530785#2"/>
    <trip id="veh123" type="veh_passenger" depart="42.18" departLane="best" departSpeed="max" from="286522069" to="977095539"/>
    <trip id="veh124" type="veh_passenger" depart="42.52" departLane="best" from="1061826295#0" to="48450165#1"/>
    <trip id="veh125" type="veh_passenger" depart="42.86" departLane="best" from="156709715#0" to="967397640"/>
    <trip id="veh126" type="veh_passenger" depart="43.21" departLane="best" departSpeed="max" from="977898782#0" to="970883565#0"/>
    <trip id="veh127" type="veh_passenger" depart="43.55" departLane="best" from="-156709951#0" to="-314845923"/>
    <trip id="veh128" type="veh_passenger" depart="43.89" departLane="best" departSpeed="max" from="-751956251" to="936136147#1"/>
    <trip id="veh129" type="veh_passenger" depart="44.24" departLane="best" from="899229878#7" to="899242859#1"/>
    <trip id="veh130" type="veh_passenger" depart="44.58" departLane="best" from="137417494#0" to="175820293#1"/>
    <trip id="veh131" type="veh_passenger" depart="44.92" departLane="best" departSpeed="max" from="840773162#0" to="316453913#3"/>
    <trip id="veh132" type="veh_passenger" depart="45.26" departLane="best" from="175937073#0" to="967398418#1"/>
    <trip id="veh133" type="veh_passenger" depart="45.61" departLane="best" departSpeed="max" from="254441903#0" to="-1077374399"/>
    <trip id="veh134" type="veh_passenger" depart="45.95" departLane="best" departSpeed="max" from="751327640" to="966764468"/>
    <trip id="veh136" type="veh_passenger" depart="46.64" departLane="best" departSpeed="max" from="-174599208#4" to="-174571263"/>
    <trip id="veh137" type="veh_passenger" depart="46.98" departLane="best" from="-173879013#1" to="174599965#2"/>
    <trip id="veh138" type="veh_passenger" depart="47.32" departLane="best" from="-892813004#5" to="175937085"/>
    <trip id="veh139" type="veh_passenger" depart="47.66" departLane="best" from="319484995#3" to="-267315594#1"/>
    <trip id="veh140" type="veh_passenger" depart="48.01" departLane="best" from="177317382#3" to="-667348036#3"/>
    <trip id="veh141" type="veh_passenger" depart="48.35" departLane="best" from="156720314#0" to="900405123#0"/>
    <trip id="veh142" type="veh_passenger" depart="48.69" departLane="best" from="879601845#1" to="-156720333"/>
    <trip id="veh143" type="veh_passenger" depart="49.04" departLane="best" from="156708312#1" to="-894836064"/>
    <trip id="veh144" type="veh_passenger" depart="49.38" departLane="best" from="-1072478698#3" to="489067658#2"/>
    <trip id="veh145" type="veh_passenger" depart="49.72" departLane="best" from="-194731750#1" to="-667347189#0"/>
    <trip id="veh146" type="veh_passenger" depart="50.06" departLane="best" departSpeed="max" from="472039694#0" to="174572445#2"/>
    <trip id="veh147" type="veh_passenger" depart="50.41" departLane="best" from="156708321#3" to="-1078232757#1"/>
    <trip id="veh148" type="veh_passenger" depart="50.75" departLane="best" from="156720147#2" to="899483378#0"/>
    <trip id="veh149" type="veh_passenger" depart="51.09" departLane="best" from="900225014#0" to="174599204#2"/>
    <trip id="veh150" type="veh_passenger" depart="51.44" departLane="best" from="844390818" to="175820422#3"/>
    <trip id="veh151" type="veh_passenger" depart="51.78" departLane="best" departSpeed="max" from="-174688987#3" to="-174574825#0"/>
    <trip id="veh152" type="veh_passenger" depart="52.12" departLane="best" from="1039616638#1" to="900225413#4"/>
    <trip id="veh154" type="veh_passenger" depart="52.81" departLane="best" from="900157488#1" to="-314840835#0"/>
    <trip id="veh156" type="veh_passenger" depart="53.49" departLane="best" from="489067635#1" to="899483583#1"/>
    <trip id="veh157" type="veh_passenger" depart="53.84" departLane="best" from="156599276#3" to="176721953#2"/>
    <trip id="veh158" type="veh_passenger" depart="54.18" departLane="best" from="-175819984#0" to="923973066#5"/>
    <trip id="veh159" type="veh_passenger" depart="54.52" departLane="best" departSpeed="max" from="896377293" to="967393616#2"/>
    <trip id="veh160" type="veh_passenger" depart="54.87" departLane="best" from="667345446#2" to="899472646#2"/>
    <trip id="veh161" type="veh_passenger" depart="55.21" departLane="best" departSpeed="max" from="-1187969508" to="48444964#3"/>
    <trip id="veh162" type="veh_passenger" depart="55.55" departLane="best" from="-1078679743#0" to="926929481"/>
    <trip id="veh163" type="veh_passenger" depart="55.89" departLane="best" departSpeed="max" from="544257075" to="899224916#0"/>
    <trip id="veh164" type="veh_passenger" depart="56.24" departLane="best" from="667345446#2" to="-751345621#2"/>
    <trip id="veh165" type="veh_passenger" depart="56.58" departLane="best" from="489084328#0" to="-174550520#0"/>
    <trip id="veh166" type="veh_passenger" depart="56.92" departLane="best" from="899220340#9" to="899064555#1"/>
    <trip id="veh167" type="veh_passenger" depart="57.27" departLane="best" from="316317150#2" to="754630209"/>
    <trip id="veh168" type="veh_passenger" depart="57.61" departLane="best" from="156709698" to="1039616649#1"/>
    <trip id="veh169" type="veh_passenger" depart="57.95" departLane="best" departSpeed="max" from="533840749#0" to="-315392364#7"/>
    <trip id="veh170" type="veh_passenger" depart="58.29" departLane="best" from="-1184112487#1" to="-175945747"/>
    <trip id="veh171" type="veh_passenger" depart="58.64" departLane="best" from="1078232754#0" to="899224916#1"/>
    <trip id="veh172" type="veh_passenger" depart="58.98" departLane="best" from="967091501" to="-896014636#2"/>
    <trip id="veh173" type="veh_passenger" depart="59.32" departLane="best" from="211401505#2" to="156599150#1"/>
    <trip id="veh174" type="veh_passenger" depart="59.67" departLane="best" from="967396594#1" to="174572459#0"/>
    <trip id="veh175" type="veh_passenger" depart="60.01" departLane="best" from="-950223343#1" to="-174571263"/>
    <trip id="veh176" type="veh_passenger" depart="60.35" departLane="best" from="967092722#3" to="-175820987#1"/>
    <trip id="veh177" type="veh_passenger" depart="60.70" departLane="best" from="967090030#0" to="-713808941"/>
    <trip id="veh178" type="veh_passenger" depart="61.04" departLane="best" from="40721102#0" to="1063744855#1"/>
    <trip id="veh179" type="veh_passenger" depart="61.38" departLane="best" departSpeed="max" from="175820953" to="174550514#1"/>
    <trip id="veh180" type="veh_passenger" depart="61.72" departLane="best" from="154952910#7" to="175820280#4"/>
    <trip id="veh181" type="veh_passenger" depart="62.07" departLane="best" departSpeed="max" from="-571066483#7" to="1187949185#1"/>
    <trip id="veh182" type="veh_passenger" depart="62.41" departLane="best" from="-1063744855#0" to="905947764#0"/>
    <trip id="veh183" type="veh_passenger" depart="62.75" departLane="best" from="174574388#2" to="40801398#0"/>
    <trip id="veh184" type="veh_passenger" depart="63.10" departLane="best" departSpeed="max" from="472039694#0" to="-314845922#2"/>
    <trip id="veh185" type="veh_passenger" depart="63.44" departLane="best" from="1222293762#0" to="-156709715#0"/>
    <trip id="veh186" type="veh_passenger" depart="63.78" departLane="best" departSpeed="max" from="267329089#0" to="1078679743#0"/>
    <trip id="veh187" type="veh_passenger" depart="64.12" departLane="best" departSpeed="max" from="1061826289#0" to="894927044#2"/>
    <trip id="veh188" type="veh_passenger" depart="64.47" departLane="best" departSpeed="max" from="342281206#0" to="966902508#1"/>
    <trip id="veh189" type="veh_passenger" depart="64.81" departLane="best" departSpeed="max" from="156599211#0" to="936136147#0"/>
    <trip id="veh190" type="veh_passenger" depart="65.15" departLane="best" from="-174574391#1" to="156698643#0"/>
    <trip id="veh191" type="veh_passenger" depart="65.50" departLane="best" from="954392003#0" to="314934508#2"/>
    <trip id="veh192" type="veh_passenger" depart="65.84" departLane="best" from="900222353#4" to="175945743#4"/>
    <trip id="veh193" type="veh_passenger" depart="66.18" departLane="best" departSpeed="max" from="-954484640#3" to="174599218"/>
    <trip id="veh195" type="veh_passenger" depart="66.87" departLane="best" departSpeed="max" from="156708328" to="175820290#0"/>
    <trip id="veh196" type="veh_passenger" depart="67.21" departLane="best" from="254441903#1" to="156709714#1"/>
    <trip id="veh197" type="veh_passenger" depart="67.55" departLane="best" from="156708366#3" to="314845930"/>
    <trip id="veh198" type="veh_passenger" depart="67.90" departLane="best" from="156720176#5" to="900226103#2"/>
    <trip id="veh200" type="veh_passenger" depart="68.58" departLane="best" from="-156720257#13" to="174550520#2"/>
    <trip id="veh201" type="veh_passenger" depart="68.92" departLane="best" from="176722847#0" to="-1079347143#0"/>
    <trip id="veh202" type="veh_passenger" depart="69.27" departLane="best" from="751346016#2" to="48446514#4"/>
    <trip id="veh203" type="veh_passenger" depart="69.61" departLane="best" from="294777529#0" to="315392354#1"/>
    <trip id="veh204" type="veh_passenger" depart="69.95" departLane="best" departSpeed="max" from="-314838840#4" to="-137892135#0"/>
    <trip id="veh205" type="veh_passenger" depart="70.30" departLane="best" departSpeed="max" from="-489101573" to="-156720212"/>
    <trip id="veh206" type="veh_passenger" depart="70.64" departLane="best" from="882163044#2" to="-156720161#1"/>
    <trip id="veh207" type="veh_passenger" depart="70.98" departLane="best" from="156662412#2" to="211401239#1"/>
    <trip id="veh208" type="veh_passenger" depart="71.33" departLane="best" from="-156720353#2" to="-40802025#1"/>
    <trip id="veh209" type="veh_passenger" depart="71.67" departLane="best" from="254579129#2" to="1077371940#2"/>
    <trip id="veh210" type="veh_passenger" depart="72.01" departLane="best" from="48444964#3" to="489067646#0"/>
    <trip id="veh211" type="veh_passenger" depart="72.35" departLane="best" from="170210986" to="156708315#4"/>
    <trip id="veh212" type="veh_passenger" depart="72.70" departLane="best" from="-175937088#1" to="967086696#0"/>
    <trip id="veh213" type="veh_passenger" depart="73.04" departLane="best" from="174555532#0" to="-156599298#2"/>
    <trip id="veh215" type="veh_passenger" depart="73.73" departLane="best" from="156708436#2" to="667345446#0"/>
    <trip id="veh216" type="veh_passenger" depart="74.07" departLane="best" from="274710661#1" to="967398418#3"/>
    <trip id="veh217" type="veh_passenger" depart="74.41" departLane="best" from="175820824#10" to="966900602#1"/>
    <trip id="veh218" type="veh_passenger" depart="74.75" departLane="best" from="899483584#4" to="175945045#1"/>
    <trip id="veh219" type="veh_passenger" depart="75.10" departLane="best" from="330982013#1" to="167061004#1"/>
    <trip id="veh220" type="veh_passenger" depart="75.44" departLane="best" from="813516428" to="174599218"/>
    <trip id="veh221" type="veh_passenger" depart="75.78" departLane="best" from="900157336#0" to="48446405#3"/>
    <trip id="veh222" type="veh_passenger" depart="76.13" departLane="best" departSpeed="max" from="156720197" to="-571066483#2"/>
    <trip id="veh223" type="veh_passenger" depart="76.47" departLane="best" departSpeed="max" from="-533840746" to="237063241#1"/>
    <trip id="veh224" type="veh_passenger" depart="76.81" departLane="best" from="48448035#0" to="174555530#0"/>
    <trip id="veh225" type="veh_passenger" depart="77.15" departLane="best" from="175945744#0" to="-893289927#1"/>
    <trip id="veh226" type="veh_passenger" depart="77.50" departLane="best" from="156720167#4" to="-900222353#7"/>
    <trip id="veh227" type="veh_passenger" depart="77.84" departLane="best" from="892813004#1" to="1074980473#1"/>
    <trip id="veh228" type="veh_passenger" depart="78.18" departLane="best" from="174574396" to="174599223#2"/>
    <trip id="veh229" type="veh_passenger" depart="78.53" departLane="best" departSpeed="max" from="-380515955" to="315392363"/>
    <trip id="veh230" type="veh_passenger" depart="78.87" departLane="best" from="315392357#1" to="-156708405"/>
    <trip id="veh231" type="veh_passenger" depart="79.21" departLane="best" from="-156599283#2" to="174599199#0"/>
    <trip id="veh232" type="veh_passenger" depart="79.56" departLane="best" from="156672719#2" to="-313258709#0"/>
    <trip id="veh233" type="veh_passenger" depart="79.90" departLane="best" from="156698676#0" to="900405045#1"/>
    <trip id="veh234" type="veh_passenger" depart="80.24" departLane="best" departSpeed="max" from="175820418#0" to="316317128#2"/>
    <trip id="veh235" type="veh_passenger" depart="80.58" departLane="best" from="894836063#2" to="489067635#2"/>
    <trip id="veh236" type="veh_passenger" depart="80.93" departLane="best" departSpeed="max" from="154952832#0" to="-1077371940#4"/>
    <trip id="veh237" type="veh_passenger" depart="81.27" departLane="best" from="1187941450" to="488952612"/>
    <trip id="veh238" type="veh_passenger" depart="81.61" departLane="best" from="893293923" to="966900768#0"/>
    <trip id="veh239" type="veh_passenger" depart="81.96" departLane="best" from="156672726#2" to="48446487#0"/>
    <trip id="veh240" type="veh_passenger" depart="82.30" departLane="best" from="174599195#1" to="-175937074"/>
    <trip id="veh241" type="veh_passenger" depart="82.64" departLane="best" from="-316317142#2" to="-315075412#0"/>
    <trip id="veh242" type="veh_passenger" depart="82.98" departLane="best" from="156708347#0" to="-154952832#2"/>