<?xml version="1.0" encoding="UTF-8"?>

<!-- generated on 2024-10-18 12:29:16.102378 by osmWebWizard.py UNKNOWN
<configuration>
    <net-file value="/home/renan/Sumo/2024-10-18-12-28-35/osm.net.xml.gz"/>
    <output-trip-file value="/home/renan/Sumo/2024-10-18-12-28-35/osm.bicycle.trips.xml"/>
    <route-file value="/home/renan/Sumo/2024-10-18-12-28-35/osm.bicycle.rou.xml"/>
    <prefix value="bike"/>
    <trip-attributes value="departLane=&quot;best&quot;"/>
    <fringe-start-attributes value="departSpeed=&quot;max&quot;"/>
    <vehicle-class value="bicycle"/>
    <fringe-factor value="2"/>
    <vclass value="bicycle"/>
    <via-edge-types value="highway.motorway,highway.motorway_link,highway.trunk_link,highway.primary_link,highway.secondary_link,highway.tertiary_link"/>
    <max-distance value="8000.0"/>
    <remove-loops value="True"/>
    <validate value="True"/>
    <insertion-density value="6.0"/>
</configuration>
-->

<!-- generated on 2024-10-18 12:29:03 by Eclipse SUMO duarouter Version 1.21.0
<duarouterConfiguration xmlns:xsi="http://www.w3.org/2001/XMLSchema-instance" xsi:noNamespaceSchemaLocation="http://sumo.dlr.de/xsd/duarouterConfiguration.xsd">

    <input>
        <net-file value="/home/renan/Sumo/2024-10-18-12-28-35/osm.net.xml.gz"/>
        <route-files value="/home/renan/Sumo/2024-10-18-12-28-35/osm.bicycle.trips.xml"/>
    </input>

    <output>
        <output-file value="/home/renan/Sumo/2024-10-18-12-28-35/osm.bicycle.trips.xml.tmp"/>
        <alternatives-output value="NUL"/>
        <write-trips value="true"/>
    </output>

    <processing>
        <remove-loops value="true"/>
    </processing>

    <time>
        <begin value="0.0"/>
        <end value="3600.0"/>
    </time>

    <report>
        <no-warnings value="true"/>
        <ignore-errors value="true"/>
        <no-step-log value="true"/>
    </report>

</duarouterConfiguration>
-->

<routes xmlns:xsi="http://www.w3.org/2001/XMLSchema-instance" xsi:noNamespaceSchemaLocation="http://sumo.dlr.de/xsd/routes_file.xsd">
    <vType id="bike_bicycle" vClass="bicycle"/>
    <trip id="bike0" type="bike_bicycle" depart="0.00" departLane="best" from="204344994#1" to="-1201213008"/>
    <trip id="bike1" type="bike_bicycle" depart="0.64" departLane="best" from="-894490833" to="-488952607#0"/>
    <trip id="bike2" type="bike_bicycle" depart="1.28" departLane="best" from="48445110#2" to="315392353"/>
    <trip id="bike3" type="bike_bicycle" depart="1.91" departLane="best" from="899482624#2" to="-156720316#0"/>
    <trip id="bike4" type="bike_bicycle" depart="2.55" departLane="best" from="-154952858" to="1219463576#2"/>
    <trip id="bike6" type="bike_bicycle" depart="3.83" departLane="best" from="-1201213008" to="-315220470#0"/>
    <trip id="bike7" type="bike_bicycle" depart="4.46" departLane="best" from="237095564#0" to="174599193#1"/>
    <trip id="bike8" type="bike_bicycle" depart="5.10" departLane="best" departSpeed="max" from="-482053671" to="175820837#7"/>
    <trip id="bike9" type="bike_bicycle" depart="5.74" departLane="best" from="813517626#0" to="-1077371940#5"/>
    <trip id="bike10" type="bike_bicycle" depart="6.38" departLane="best" from="772103535#3" to="-379742187"/>
    <trip id="bike11" type="bike_bicycle" depart="7.01" departLane="best" from="-950223343#3" to="-175820947#0"/>
    <trip id="bike12" type="bike_bicycle" depart="7.65" departLane="best" from="964491924" to="899220339#1"/>
    <trip id="bike13" type="bike_bicycle" depart="8.29" departLane="best" from="156720362#0" to="167061172#1"/>
    <trip id="bike14" type="bike_bicycle" depart="8.93" departLane="best" departSpeed="max" from="882163037" to="175945045#2"/>
    <trip id="bike15" type="bike_bicycle" depart="9.56" departLane="best" departSpeed="max" from="784106521" to="48446514#0"/>
    <trip id="bike16" type="bike_bicycle" depart="10.20" departLane="best" from="174550580" to="967092715"/>
    <trip id="bike17" type="bike_bicycle" depart="10.84" departLane="best" departSpeed="max" from="1086301992" to="174599237#0"/>
    <trip id="bike18" type="bike_bicycle" depart="11.48" departLane="best" from="854382706#0" to="194731750#0"/>
    <trip id="bike19" type="bike_bicycle" depart="12.11" departLane="best" from="894927048#2" to="175820420#0"/>
    <trip id="bike20" type="bike_bicycle" depart="12.75" departLane="best" departSpeed="max" from="316317153#0" to="156599150#0"/>
    <trip id="bike21" type="bike_bicycle" depart="13.39" departLane="best" from="175820280#4" to="898520575#1"/>
    <trip id="bike22" type="bike_bicycle" depart="14.03" departLane="best" from="-156720234#0" to="-533946215"/>
    <trip id="bike23" type="bike_bicycle" depart="14.66" departLane="best" from="170210859#0" to="-896014636#2"/>
    <trip id="bike24" type="bike_bicycle" depart="15.30" departLane="best" from="186550320" to="1087576038#3"/>
    <trip id="bike25" type="bike_bicycle" depart="15.94" departLane="best" from="1078685245#1" to="321740726"/>
    <trip id="bike26" type="bike_bicycle" depart="16.58" departLane="best" departSpeed="max" from="-863539298#1" to="905792707"/>
    <trip id="bike27" type="bike_bicycle" depart="17.21" departLane="best" from="237065576#2" to="175946285#1"/>
    <trip id="bike28" type="bike_bicycle" depart="17.85" departLane="best" from="-177317480#4" to="48446510#4"/>
    <trip id="bike29" type="bike_bicycle" depart="18.49" departLane="best" from="-175945045#1" to="1192778630"/>
    <trip id="bike30" type="bike_bicycle" depart="19.13" departLane="best" from="967398960#5" to="267329089#5"/>
    <trip id="bike31" type="bike_bicycle" depart="19.76" departLane="best" from="174574390" to="316317148"/>
    <trip id="bike33" type="bike_bicycle" depart="21.04" departLane="best" departSpeed="max" from="-533813989" to="138620669#0"/>
    <trip id="bike34" type="bike_bicycle" depart="21.68" departLane="best" from="-905330117" to="-882171604#0"/>
    <trip id="bike35" type="bike_bicycle" depart="22.31" departLane="best" from="-363490266" to="908623887"/>
    <trip id="bike36" type="bike_bicycle" depart="22.95" departLane="best" departSpeed="max" from="897951429" to="905788230#0"/>
    <trip id="bike37" type="bike_bicycle" depart="23.59" departLane="best" from="-254629119#3" to="137417494#1"/>
    <trip id="bike38" type="bike_bicycle" depart="24.23" departLane="best" from="-904035360#1" to="156708407#4"/>
    <trip id="bike39" type="bike_bicycle" depart="24.86" departLane="best" from="854358224" to="-753618617"/>
    <trip id="bike40" type="bike_bicycle" depart="25.50" departLane="best" departSpeed="max" from="174599195#0" to="-879736733#0"/>
    <trip id="bike41" type="bike_bicycle" depart="26.14" departLane="best" from="175819916#2" to="900225413#4"/>
    <trip id="bike42" type="bike_bicycle" depart="26.78" departLane="best" from="1214806050#6" to="-40802855#4"/>
    <trip id="bike43" type="bike_bicycle" depart="27.41" departLane="best" from="970883574#0" to="167061172#3"/>
    <trip id="bike44" type="bike_bicycle" depart="28.05" departLane="best" from="-156720334#0" to="156599153#6"/>
    <trip id="bike45" type="bike_bicycle" depart="28.69" departLane="best" from="-174550619#0" to="237062380#1"/>
    <trip id="bike46" type="bike_bicycle" depart="29.33" departLane="best" from="673241268#2" to="156599201"/>
    <trip id="bike47" type="bike_bicycle" depart="29.96" departLane="best" departSpeed="max" from="-156708368#2" to="1214793493#2"/>
    <trip id="bike48" type="bike_bicycle" depart="30.60" departLane="best" from="970883567#1" to="174555688#3"/>
    <trip id="bike49" type="bike_bicycle" depart="31.24" departLane="best" from="472039695#0" to="897897377#2"/>
    <trip id="bike50" type="bike_bicycle" depart="31.88" departLane="best" from="-1078359821#1" to="48446238#3"/>
    <trip id="bike51" type="bike_bicycle" depart="32.51" departLane="best" from="314933872#0" to="174572446#1"/>
    <trip id="bike52" type="bike_bicycle" depart="33.15" departLane="best" departSpeed="max" from="-863539298#1" to="274710507#6"/>
    <trip id="bike53" type="bike_bicycle" depart="33.79" departLane="best" from="-174555688#2" to="156672726#1"/>
    <trip id="bike54" type="bike_bicycle" depart="34.43" departLane="best" from="156708315#2" to="954392003#1"/>
    <trip id="bike55" type="bike_bicycle" depart="35.06" departLane="best" from="897951423#1" to="-879736735#1"/>
    <trip id="bike56" type="bike_bicycle" depart="35.70" departLane="best" from="156720232" to="237065568#0"/>
    <trip id="bike57" type="bike_bicycle" depart="36.34" departLane="best" from="-902078198#0" to="899220339#1"/>
    <trip id="bike58" type="bike_bicycle" depart="36.98" departLane="best" departSpeed="max" from="-899472646#2" to="267320974#2"/>
    <trip id="bike59" type="bike_bicycle" depart="37.61" departLane="best" from="175820951#0" to="-175820830#6"/>
    <trip id="bike60" type="bike_bicycle" depart="38.25" departLane="best" from="489067655#1" to="174572456#1"/>
    <trip id="bike61" type="bike_bicycle" depart="38.89" departLane="best" from="571764289#0" to="174571256#0"/>
    <trip id="bike62" type="bike_bicycle" depart="39.53" departLane="best" from="-1039501931#2" to="-950223211"/>
    <trip id="bike63" type="bike_bicycle" depart="40.16" departLane="best" departSpeed="max" from="-1085482420" to="905732807"/>
    <trip id="bike64" type="bike_bicycle" depart="40.80" departLane="best" from="-898267176" to="-753792334"/>
    <trip id="bike65" type="bike_bicycle" depart="41.44" departLane="best" from="-904035358#1" to="-156708328"/>
    <trip id="bike66" type="bike_bicycle" depart="42.08" departLane="best" from="-899472646#0" to="923973066#0"/>
    <!-- <trip id="bike67" type="bike_bicycle" depart="42.71" departLane="best" from="-156720290#2" to="156720234#1"/>
    <trip id="bike68" type="bike_bicycle" depart="43.35" departLane="best" from="-156709712#3" to="564429176"/>
    <trip id="bike69" type="bike_bicycle" depart="43.99" departLane="best" from="489101575" to="-174599230#0"/>
    <trip id="bike70" type="bike_bicycle" depart="44.63" departLane="best" from="156708414#4" to="174599222#3"/>
    <trip id="bike71" type="bike_bicycle" depart="45.26" departLane="best" from="854358225" to="899220341#2"/>
    <trip id="bike72" type="bike_bicycle" depart="45.90" departLane="best" from="154952889" to="-362464968#13"/>
    <trip id="bike73" type="bike_bicycle" depart="46.54" departLane="best" from="174555530#0" to="48446514#1"/>
    <trip id="bike74" type="bike_bicycle" depart="47.18" departLane="best" from="-316317128#3" to="-905732808"/>
    <trip id="bike75" type="bike_bicycle" depart="47.81" departLane="best" from="970883564#0" to="313258707#1"/>
    <trip id="bike76" type="bike_bicycle" depart="48.45" departLane="best" from="156599251" to="174550519#2"/>
    <trip id="bike77" type="bike_bicycle" depart="49.09" departLane="best" from="-174574393#0" to="-488952658#2"/>
    <trip id="bike78" type="bike_bicycle" depart="49.73" departLane="best" from="-926970884" to="175820835#1"/>
    <trip id="bike79" type="bike_bicycle" depart="50.36" departLane="best" departSpeed="max" from="-533840749#1" to="-472039698#0"/>
    <trip id="bike80" type="bike_bicycle" depart="51.00" departLane="best" from="-156709954#2" to="237095568"/>
    <trip id="bike81" type="bike_bicycle" depart="51.64" departLane="best" departSpeed="max" from="-533813988" to="903633959#0"/>
    <trip id="bike82" type="bike_bicycle" depart="52.28" departLane="best" from="894897080#0" to="-156720161#1"/>
    <trip id="bike83" type="bike_bicycle" depart="52.92" departLane="best" from="-571764289#1" to="-315026297#1"/>
    <trip id="bike84" type="bike_bicycle" depart="53.55" departLane="best" from="-40753193" to="-174659559#1"/>
    <trip id="bike85" type="bike_bicycle" depart="54.19" departLane="best" departSpeed="max" from="905737643#0" to="175819983#0"/>
    <trip id="bike86" type="bike_bicycle" depart="54.83" departLane="best" from="156708396#2" to="-751346016#4"/>
    <trip id="bike87" type="bike_bicycle" depart="55.47" departLane="best" from="813517077#2" to="314845926#5"/>
    <trip id="bike88" type="bike_bicycle" depart="56.10" departLane="best" from="-156723054#3" to="-156615307"/>
    <trip id="bike89" type="bike_bicycle" depart="56.74" departLane="best" from="154952900#3" to="156709684"/>
    <trip id="bike90" type="bike_bicycle" depart="57.38" departLane="best" from="472039743#3" to="315075422"/>
    <trip id="bike91" type="bike_bicycle" depart="58.02" departLane="best" from="-967396905#6" to="-167064098"/>
    <trip id="bike92" type="bike_bicycle" depart="58.65" departLane="best" from="1216936313#0" to="-1072472445#0"/>
    <trip id="bike93" type="bike_bicycle" depart="59.29" departLane="best" from="894927048#2" to="-754631968#2"/>
    <trip id="bike94" type="bike_bicycle" depart="59.93" departLane="best" from="315015954#0" to="156708354#1"/>
    <trip id="bike95" type="bike_bicycle" depart="60.57" departLane="best" from="154952856" to="-896015454"/>
    <trip id="bike96" type="bike_bicycle" depart="61.20" departLane="best" from="-751346016#6" to="905348577#0"/>
    <trip id="bike97" type="bike_bicycle" depart="61.84" departLane="best" from="156610048#6" to="897897377#6"/>
    <trip id="bike98" type="bike_bicycle" depart="62.48" departLane="best" from="-174572442#0" to="-156599276#2"/>
    <trip id="bike99" type="bike_bicycle" depart="63.12" departLane="best" departSpeed="max" from="977898782#0" to="887672617"/>
    <trip id="bike100" type="bike_bicycle" depart="63.75" departLane="best" from="967089794" to="905665631#0"/>
    <trip id="bike101" type="bike_bicycle" depart="64.39" departLane="best" departSpeed="max" from="882171604#0" to="-175945737#0"/>
    <trip id="bike102" type="bike_bicycle" depart="65.03" departLane="best" from="156709707#2" to="-379730764#0"/>
    <trip id="bike103" type="bike_bicycle" depart="65.67" departLane="best" from="1215124521#1" to="156708332#1"/>
    <trip id="bike104" type="bike_bicycle" depart="66.30" departLane="best" from="1087399445#0" to="967397649#0"/>
    <trip id="bike105" type="bike_bicycle" depart="66.94" departLane="best" from="-854382710#0" to="-751345621#2"/>
    <trip id="bike106" type="bike_bicycle" depart="67.58" departLane="best" from="156708317#4" to="926929483#0"/>
    <trip id="bike107" type="bike_bicycle" depart="68.22" departLane="best" from="964491925" to="970883567#0"/>
    <trip id="bike108" type="bike_bicycle" depart="68.85" departLane="best" from="174572460#0" to="48444964#4"/>
    <trip id="bike109" type="bike_bicycle" depart="69.49" departLane="best" from="-175820957#1" to="-902075460#3"/>
    <trip id="bike110" type="bike_bicycle" depart="70.13" departLane="best" from="967089791#2" to="175820428#0"/>
    <trip id="bike111" type="bike_bicycle" depart="70.77" departLane="best" from="174555687#1" to="489101576#0"/>
    <trip id="bike112" type="bike_bicycle" depart="71.40" departLane="best" from="156672723#2" to="175820824#6"/>
    <trip id="bike113" type="bike_bicycle" depart="72.04" departLane="best" from="-156720257#12" to="895434062"/>
    <trip id="bike114" type="bike_bicycle" depart="72.68" departLane="best" from="-175937074" to="966900602#0"/>
    <trip id="bike115" type="bike_bicycle" depart="73.32" departLane="best" from="-156720240#0" to="314838840#0"/>
    <trip id="bike116" type="bike_bicycle" depart="73.95" departLane="best" from="-175820427#0" to="315220470#1"/>
    <trip id="bike117" type="bike_bicycle" depart="74.59" departLane="best" departSpeed="max" from="-564429176" to="-174574823"/>
    <trip id="bike118" type="bike_bicycle" depart="75.23" departLane="best" from="899242857#0" to="-753617697"/>
    <trip id="bike119" type="bike_bicycle" depart="75.87" departLane="best" from="175820424" to="194731750#7"/>
    <trip id="bike120" type="bike_bicycle" depart="76.50" departLane="best" departSpeed="max" from="154952808#0" to="175820824#2"/>
    <trip id="bike121" type="bike_bicycle" depart="77.14" departLane="best" from="-156723054#3" to="905786394#1"/>
    <trip id="bike122" type="bike_bicycle" depart="77.78" departLane="best" from="316317150#0" to="482053728#2"/>
    <trip id="bike123" type="bike_bicycle" depart="78.42" departLane="best" departSpeed="max" from="-616456704" to="137417494#2"/>
    <trip id="bike124" type="bike_bicycle" depart="79.05" departLane="best" from="-314798808#1" to="-904115138"/>
    <trip id="bike125" type="bike_bicycle" depart="79.69" departLane="best" from="-905330119#1" to="489101589#0"/>
    <trip id="bike126" type="bike_bicycle" depart="80.33" departLane="best" from="156720161#1" to="156708442#3"/>
    <trip id="bike128" type="bike_bicycle" depart="81.60" departLane="best" from="-156720167#1" to="379730732#0"/>
    <trip id="bike130" type="bike_bicycle" depart="82.88" departLane="best" from="899220340#2" to="899242851#1"/>
    <trip id="bike131" type="bike_bicycle" depart="83.52" departLane="best" from="-1078679743#0" to="-175820987#0"/>
    <trip id="bike132" type="bike_bicycle" depart="84.15" departLane="best" from="855187051#8" to="40801490#5"/>
    <trip id="bike133" type="bike_bicycle" depart="84.79" departLane="best" from="175820987#3" to="967398418#5"/>
    <trip id="bike134" type="bike_bicycle" depart="85.43" departLane="best" from="254625765#5" to="-1077374399"/>
    <trip id="bike135" type="bike_bicycle" depart="86.07" departLane="best" from="844390822#1" to="-904099235"/>
    <trip id="bike136" type="bike_bicycle" depart="86.70" departLane="best" from="279451569#1" to="905879232#1"/>
    <trip id="bike137" type="bike_bicycle" depart="87.34" departLane="best" from="-174687942#2" to="-174572449#0"/>
    <trip id="bike138" type="bike_bicycle" depart="87.98" departLane="best" from="174550522#3" to="174599965#1"/>
    <trip id="bike139" type="bike_bicycle" depart="88.62" departLane="best" departSpeed="max" from="-887672617" to="175945742#0"/>
    <trip id="bike140" type="bike_bicycle" depart="89.25" departLane="best" from="393060304" to="-316315295"/>
    <trip id="bike141" type="bike_bicycle" depart="89.89" departLane="best" from="177317480#0" to="879736740"/>
    <trip id="bike142" type="bike_bicycle" depart="90.53" departLane="best" from="156709946#1" to="903633958"/>
    <trip id="bike143" type="bike_bicycle" depart="91.17" departLane="best" from="880971440" to="-156723044#0"/>
    <trip id="bike144" type="bike_bicycle" depart="91.80" departLane="best" from="154952900#2" to="-895398088#0"/>
    <trip id="bike146" type="bike_bicycle" depart="93.08" departLane="best" from="-194731750#0" to="855186566#3"/>
    <trip id="bike147" type="bike_bicycle" depart="93.72" departLane="best" from="48446405#1" to="174599230#0"/>
    <trip id="bike148" type="bike_bicycle" depart="94.35" departLane="best" departSpeed="max" from="154952940#0" to="-1078358940"/>
    <trip id="bike149" type="bike_bicycle" depart="94.99" departLane="best" from="156720184#1" to="899482624#3"/>
    <trip id="bike150" type="bike_bicycle" depart="95.63" departLane="best" from="900222353#6" to="174599199#2"/>
    <trip id="bike151" type="bike_bicycle" depart="96.27" departLane="best" from="855187056" to="-175820823#0"/>
    <trip id="bike152" type="bike_bicycle" depart="96.90" departLane="best" from="175820822#3" to="174599222#3"/>
    <trip id="bike153" type="bike_bicycle" depart="97.54" departLane="best" departSpeed="max" from="-904035361#1" to="900226103#0"/>
    <trip id="bike154" type="bike_bicycle" depart="98.18" departLane="best" from="751346016#0" to="897897377#2"/>
    <trip id="bike155" type="bike_bicycle" depart="98.82" departLane="best" from="900157338" to="330982014#0"/>
    <trip id="bike156" type="bike_bicycle" depart="99.45" departLane="best" from="751346016#4" to="-173879017#2"/>
    <trip id="bike157" type="bike_bicycle" depart="100.09" departLane="best" from="-1078682747#0" to="899483584#0"/>
    <trip id="bike158" type="bike_bicycle" depart="100.73" departLane="best" from="1222602593" to="-1216823915"/>
    <trip id="bike159" type="bike_bicycle" depart="101.37" departLane="best" from="-175820951#1" to="-905732812"/>
    <trip id="bike160" type="bike_bicycle" depart="102.00" departLane="best" from="-896014636#0" to="967391488#0"/>
    <trip id="bike161" type="bike_bicycle" depart="102.64" departLane="best" from="813517630" to="899314696#0"/>
    <trip id="bike162" type="bike_bicycle" depart="103.28" departLane="best" departSpeed="max" from="-1187969508" to="489067603#4"/>
    <trip id="bike163" type="bike_bicycle" depart="103.92" departLane="best" from="905879230#0" to="905732816"/>
    <trip id="bike165" type="bike_bicycle" depart="105.19" departLane="best" from="813517630" to="880927426"/>
    <trip id="bike166" type="bike_bicycle" depart="105.83" departLane="best" from="667074489#0" to="-174555687#1"/>
    <trip id="bike168" type="bike_bicycle" depart="107.11" departLane="best" from="488952607#2" to="854382710#1"/>
    <trip id="bike169" type="bike_bicycle" depart="107.74" departLane="best" from="156708341#2" to="905330119#1"/>
    <trip id="bike170" type="bike_bicycle" depart="108.38" departLane="best" departSpeed="max" from="751327640" to="-489067659#0"/>
    <trip id="bike171" type="bike_bicycle" depart="109.02" departLane="best" departSpeed="max" from="-1187510125" to="-315015954#1"/>
    <trip id="bike173" type="bike_bicycle" depart="110.29" departLane="best" from="967089080" to="-896084809#2"/>
    <trip id="bike174" type="bike_bicycle" depart="110.93" departLane="best" from="360758932#4" to="137892135#2"/>
    <trip id="bike175" type="bike_bicycle" depart="111.57" departLane="best" from="967395392" to="174572442#3"/>
    <trip id="bike176" type="bike_bicycle" depart="112.21" departLane="best" from="905879226#0" to="-174572448"/>
    <trip id="bike177" type="bike_bicycle" depart="112.84" departLane="best" from="967090451#0" to="-237008593#2"/>
    <trip id="bike178" type="bike_bicycle" depart="113.48" departLane="best" departSpeed="max" from="966902509#0" to="-880895462"/>
    <trip id="bike179" type="bike_bicycle" depart="114.12" departLane="best" departSpeed="max" from="-174550526#4" to="156672726#0"/>
    <trip id="bike180" type="bike_bicycle" depart="114.76" departLane="best" departSpeed="max" from="472039743#0" to="-905732827"/>
    <trip id="bike181" type="bike_bicycle" depart="115.39" departLane="best" from="175820837#4" to="170210856#1"/>
    <trip id="bike182" type="bike_bicycle" depart="116.03" departLane="best" departSpeed="max" from="1165484992" to="175820293#0"/>
    <trip id="bike183" type="bike_bicycle" depart="116.67" departLane="best" from="781340069#3" to="40802728"/>
    <trip id="bike184" type="bike_bicycle" depart="117.31" departLane="best" departSpeed="max" from="-1063744855#1" to="905423958"/>
    <trip id="bike185" type="bike_bicycle" depart="117.94" departLane="best" from="-1079151519#0" to="48445962#0"/>
    <trip id="bike186" type="bike_bicycle" depart="118.58" departLane="best" from="48446405#6" to="315075413"/>
    <trip id="bike187" type="bike_bicycle" depart="119.22" departLane="best" from="1077373074#2" to="-156720147#1"/>
    <trip id="bike188" type="bike_bicycle" depart="119.86" departLane="best" from="285327489#3" to="-968239941#2"/>
    <trip id="bike189" type="bike_bicycle" depart="120.49" departLane="best" from="-905030298" to="894921414"/>
    <trip id="bike190" type="bike_bicycle" depart="121.13" departLane="best" from="40801398#1" to="-904115142"/>
    <trip id="bike191" type="bike_bicycle" depart="121.77" departLane="best" from="-904099235" to="154952889"/>
    <trip id="bike192" type="bike_bicycle" depart="122.41" departLane="best" from="1216887212" to="900226103#0"/>
    <trip id="bike193" type="bike_bicycle" depart="123.04" departLane="best" from="-174599223#1" to="156599153#8"/>
    <trip id="bike194" type="bike_bicycle" depart="123.68" departLane="best" from="905879230#0" to="315392354#3"/>
    <trip id="bike195" type="bike_bicycle" depart="124.32" departLane="best" from="900222336" to="-177317480#1"/>
    <trip id="bike196" type="bike_bicycle" depart="124.96" departLane="best" from="-899835892#1" to="174599205"/>
    <trip id="bike197" type="bike_bicycle" depart="125.59" departLane="best" from="-1039501931#0" to="-897951423#1"/>
    <trip id="bike198" type="bike_bicycle" depart="126.23" departLane="best" departSpeed="max" from="156530765#0" to="175820431#0"/>
    <trip id="bike199" type="bike_bicycle" depart="126.87" departLane="best" from="254629117#3" to="156708438#3"/>
    <trip id="bike200" type="bike_bicycle" depart="127.51" departLane="best" from="156599300#3" to="-379730764#0"/>
    <trip id="bike201" type="bike_bicycle" depart="128.14" departLane="best" from="156708401#2" to="900405044#0"/>
    <trip id="bike202" type="bike_bicycle" depart="128.78" departLane="best" from="751346016#0" to="-175946283#0"/>
    <trip id="bike203" type="bike_bicycle" depart="129.42" departLane="best" from="-156720281#2" to="173879016"/>
    <trip id="bike204" type="bike_bicycle" depart="130.06" departLane="best" from="177317405" to="1040106153#1"/>
    <trip id="bike205" type="bike_bicycle" depart="130.69" departLane="best" from="846558167" to="489101586"/>
    <trip id="bike206" type="bike_bicycle" depart="131.33" departLane="best" from="314838840#3" to="-488952658#0"/>
    <trip id="bike207" type="bike_bicycle" depart="131.97" departLane="best" from="-315392354#7" to="-1192165883"/>
    <trip id="bike208" type="bike_bicycle" depart="132.61" departLane="best" from="-667348036#1" to="156720142#1"/>
    <trip id="bike209" type="bike_bicycle" depart="133.24" departLane="best" from="887672615#2" to="-156720176#3"/>
    <trip id="bike210" type="bike_bicycle" depart="133.88" departLane="best" from="138620556#0" to="237065583#1"/>
    <trip id="bike211" type="bike_bicycle" depart="134.52" departLane="best" from="-315075418#1" to="37051130#2"/>
    <trip id="bike212" type="bike_bicycle" depart="135.16" departLane="best" from="156720167#4" to="-751345621#2"/>
    <trip id="bike213" type="bike_bicycle" depart="135.79" departLane="best" from="-254629123#0" to="-1076220192"/>
    <trip id="bike214" type="bike_bicycle" depart="136.43" departLane="best" from="488952645#2" to="-621343873#8"/>
    <trip id="bike215" type="bike_bicycle" depart="137.07" departLane="best" from="-174550522#0" to="-156599276#1"/>
    <trip id="bike216" type="bike_bicycle" depart="137.71" departLane="best" from="237065589#0" to="966896029#3"/>
    <trip id="bike217" type="bike_bicycle" depart="138.34" departLane="best" from="156720366" to="-156599276#0"/>
    <trip id="bike218" type="bike_bicycle" depart="138.98" departLane="best" from="-751346016#2" to="894927044#1"/>
    <trip id="bike219" type="bike_bicycle" depart="139.62" departLane="best" from="156708321#3" to="826357366#0"/>
    <trip id="bike220" type="bike_bicycle" depart="140.26" departLane="best" from="293861350#9" to="967398959#1"/>
    <trip id="bike221" type="bike_bicycle" depart="140.89" departLane="best" from="175820428#3" to="936136147#1"/>
    <trip id="bike222" type="bike_bicycle" depart="141.53" departLane="best" from="-175945742#0" to="177317392#0"/>
    <trip id="bike223" type="bike_bicycle" depart="142.17" departLane="best" from="40753532#0" to="156723050#1"/>
    <trip id="bike224" type="bike_bicycle" depart="142.81" departLane="best" from="855186562#1" to="174599205"/>
    <trip id="bike225" type="bike_bicycle" depart="143.44" departLane="best" from="900157329#4" to="489067645#7"/>
    <trip id="bike227" type="bike_bicycle" depart="144.72" departLane="best" from="-693987220#2" to="265346281#1"/>
    <trip id="bike228" type="bike_bicycle" depart="145.36" departLane="best" from="489101575" to="-174550576#0"/>
    <trip id="bike229" type="bike_bicycle" depart="145.99" departLane="best" from="175946159#1" to="-894836063#0"/>
    <trip id="bike232" type="bike_bicycle" depart="147.91" departLane="best" from="174555531#0" to="-175819911#0"/>
    <trip id="bike234" type="bike_bicycle" depart="149.18" departLane="best" from="319484995#0" to="156709692"/>
    <trip id="bike235" type="bike_bicycle" depart="149.82" departLane="best" from="-1266569729" to="174574395#1"/>
    <trip id="bike236" type="bike_bicycle" depart="150.46" departLane="best" from="138620688#3" to="-316317147#0"/>
    <trip id="bike237" type="bike_bicycle" depart="151.09" departLane="best" from="154952817#2" to="902634307#1"/>
    <trip id="bike238" type="bike_bicycle" depart="151.73" departLane="best" from="175819913#5" to="363490227"/>
    <trip id="bike239" type="bike_bicycle" depart="152.37" departLane="best" from="894807341#1" to="616456704"/>
    <trip id="bike241" type="bike_bicycle" depart="153.64" departLane="best" from="1039930344#0" to="-1268414601"/>
    <trip id="bike242" type="bike_bicycle" depart="154.28" departLane="best" from="-177317399#0" to="951359433#1"/>
    <trip id="bike243" type="bike_bicycle" depart="154.92" departLane="best" from="154952806" to="489101573"/>
    <trip id="bike244" type="bike_bicycle" depart="155.56" departLane="best" departSpeed="max" from="174571261#0" to="175945044#3"/>
    <trip id="bike245" type="bike_bicycle" depart="156.20" departLane="best" departSpeed="max" from="-482053671" to="-40802855#4"/>
    <trip id="bike246" type="bike_bicycle" depart="156.83" departLane="best" from="-156599158#2" to="-1216823912"/>
    <trip id="bike247" type="bike_bicycle" depart="157.47" departLane="best" from="-916313647#1" to="315392357#2"/>
    <trip id="bike248" type="bike_bicycle" depart="158.11" departLane="best" from="1220534362#2" to="-175945044#0"/>
    <trip id="bike249" type="bike_bicycle" depart="158.75" departLane="best" from="156708365#2" to="-174599223#0"/>
    <trip id="bike250" type="bike_bicycle" depart="159.38" departLane="best" departSpeed="max" from="175945528#0" to="-1214806050#3"/>
    <trip id="bike251" type="bike_bicycle" depart="160.02" departLane="best" from="1189902477" to="174689613#0"/>