<?xml version="1.0" encoding="UTF-8"?>

<!-- generated on 2024-10-18 12:30:54.104300 by osmWebWizard.py UNKNOWN
<configuration>
    <net-file value="/home/renan/Sumo/2024-10-18-12-28-35/osm.net.xml.gz"/>
    <output-trip-file value="/home/renan/Sumo/2024-10-18-12-28-35/osm.pedestrian.trips.xml"/>
    <route-file value="/home/renan/Sumo/2024-10-18-12-28-35/osm.pedestrian.rou.xml"/>
    <pedestrians value="True"/>
    <prefix value="ped"/>
    <vehicle-class value="pedestrian"/>
    <fringe-factor value="1"/>
    <max-distance value="2000.0"/>
    <insertion-density value="10.0"/>
</configuration>
-->

<!-- generated on 2024-10-18 12:30:33 by Eclipse SUMO duarouter Version 1.21.0
<duarouterConfiguration xmlns:xsi="http://www.w3.org/2001/XMLSchema-instance" xsi:noNamespaceSchemaLocation="http://sumo.dlr.de/xsd/duarouterConfiguration.xsd">

    <input>
        <net-file value="/home/renan/Sumo/2024-10-18-12-28-35/osm.net.xml.gz"/>
        <route-files value="/home/renan/Sumo/2024-10-18-12-28-35/osm.pedestrian.trips.xml"/>
    </input>

    <output>
        <output-file value="/home/renan/Sumo/2024-10-18-12-28-35/osm.pedestrian.rou.xml"/>
        <alternatives-output value="NUL"/>
    </output>

    <time>
        <begin value="0.0"/>
        <end value="3600.0"/>
    </time>

    <report>
        <no-warnings value="true"/>
        <ignore-errors value="true"/>
        <no-step-log value="true"/>
    </report>

</duarouterConfiguration>
-->

<routes xmlns:xsi="http://www.w3.org/2001/XMLSchema-instance" xsi:noNamespaceSchemaLocation="http://sumo.dlr.de/xsd/routes_file.xsd">
    <vType id="ped_pedestrian" vClass="pedestrian"/>
    <person id="ped4" type="ped_pedestrian" depart="1.78">
        <walk edges="544257074#0 -544257074#1 -393067210 315392368#2 -316453952 -313258706#0 -313258706#1 -156672726#3 -753617595 -906189360 667346669 967391491#1 1051022910#0 -156672724#0 -156672724#1 156672724#2 -156672719#2 314800855 40802520#4 175945743#0 175945743#1 175945743#2 175945743#3"/>
    </person>
    <person id="ped5" type="ped_pedestrian" depart="2.22">
        <walk edges="-844390819#3 -844390819#1 -844390819#0 1186510790#0 1074980473#2 1074980473#1 905879232#4 48446514#5 48446514#4 48446514#3 -48446514#2 -48446514#1 48446497#2 -48446497#3 -48446497#4 314934506#2 314934506#1 314934506#0 902517973 48446483#1 -48446405#4 -48446405#5 -48446405#6 -48446405#7 48446405#8 -900157333#1 967397125 156708435 -905027478 -967396905#6 -967396905#5 -967396905#4 -967396905#3 -967396905#2 -967396905#1 -967396905#0 599426618 156708440#0 156708440#1 667345446#0 -1078358975#0 -1078358975#1 -174574824#1"/>
    </person>
    <person id="ped7" type="ped_pedestrian" depart="3.11">
        <walk edges="-156708414#2 -156708414#1 -156708414#0 362775137#0 362775137#1 156708348#2 156708374#2 156708374#3 137273377#0 137273377#2 899220341#0 899220341#1 899220341#2 -1187931641 -177317392#1 -177317392#0 -138620688#4 -138620688#2 -138620688#1 -138620688#0 -156708299#2 -156708299#1 -156708299#0 -713656879 156708352#0 -489067599#1 -156708436#0"/>
    </person>
    <person id="ped8" type="ped_pedestrian" depart="3.56">
        <walk edges="844390819#0 1186510790#0 1074980473#2 1074980473#1 905879232#4 48446514#5 48446514#4 48446514#3 -48446514#2 -48446514#1 48446497#2 -48446497#3 -48446497#4 314934506#2 314934506#1 314934506#0 902517973 48446483#1 48446483#0 48446412#5 -48446412#4 156709710#0 156709710#1 156709710#2 156709710#3 482053686 -1079347145#0 -156709715#0 -1079347143#2 156709694 900157329#0 900157329#1 900157329#2 900157329#3 900157329#4 900157329#5 634042771#1 967398418#0 967398418#1 967398418#2 967398418#3 285327489#0 -900225258#1 174550573 -482053696 -482053697 -905315352 482053699#0 156720371 -923973066#0 -923973066#1 -923973066#2 -923973066#3 -923973066#4 -923973066#5 156720176#2 156720176#1 156720176#0 -900435190 892813004#2 156720355#4 156720355#3 156720355#2 -156720257#9 156720257#10 156720291 156720301#3"/>
    </person>
    <person id="ped9" type="ped_pedestrian" depart="4.00">
        <walk edges="156599153#2 156599153#1 -156599145#1 -156599145#2 -156599145#3 156599145#4 -156599273#1 -156599273#0 -894820236 -156599151#1 156599151#0 896874631#2 896874631#1 896874631#0 896084810#1 896084817#1 896084817#0 896084813#2 896084813#1 896084813#8 896084814#0 896084814#1 -753792072#2 854269522#1 854269522#0 -854269523#1 -854269523#0 293861350#13 293861350#12 293861350#11 293861350#10 293861350#9 293861350#8 293861350#7 854358057#0 907947355#0"/>
    </person>
    <person id="ped10" type="ped_pedestrian" depart="4.44">
        <walk edges="854699547#0 854382709#0 854382692#2 854382692#1 854382692#0 -825659013#4 825659013#3 211401240#0 -905879232#1 905879232#2 156708359#0 902634308 -48446514#4 -48446514#3 -48446514#2 -48446514#1 48446497#2 -48446497#3 -48446497#4 314934506#2 314934506#1 314934506#0 902517973 48446483#1 -48446405#4 -48446405#5 -48446405#6 -48446405#7 48446405#8 -900157333#1 967397125 156708365#3 754630209 -156708423#2 -156708429#1 156708429#0"/>
    </person>
    <person id="ped11" type="ped_pedestrian" depart="4.89">
        <walk edges="177317382#0 177317382#1 177317382#2 177317382#3 -314932011 713808941 156708422#2 967396591 967396592 -156708343#0 314932009#2 314932009#1 -754631968#2 -754629674#1 -754629674#0 -754629676 -156708405 156708365#0 156708365#2 156708365#3 967397125 -900157333#1 48446405#8 -48446405#7 -48446405#6 -48446405#5 -48446405#4 48446483#1 902517973 314934506#0 314934506#1 314934506#2 -48446497#4 -48446497#3 48446497#2 -48446514#1 -48446514#2 48446514#3 48446514#4 48446514#5 905879232#4 1074980473#1 1074980473#2 1186510790#0 -844390819#0 -844390819#1 362775135 156698719#1 -156708397#5 -156708397#4 -156708397#3 -156708397#2 -156708397#1 -156708328 -754633909 -211401238 -211401241 154952852 156599212#1 156599233 -237100800#1 -237062380#1 -237100803 -154952910#3"/>
    </person>
    <person id="ped12" type="ped_pedestrian" depart="5.33">
        <walk edges="-211401505#3 -156720257#6 -156720257#7 -156720257#8 -156720355#2 -156720355#3 -1192523106 892813004#2 -900435190 156720176#0 156720176#1 156720176#2 -923973066#5 -923973066#4 -923973066#3 -923973066#2 -923973066#1 -923973066#0 156720371 482053699#0 -905315352 -482053697 -482053696 174550573 -900225258#1 285327489#0 967398418#3 967398418#2 967398418#1 967398418#0 634042771#1 900157329#5 900157329#4 900157329#3 900157329#2 900157329#1 900157329#0 156709694 -1079347143#2 -156709715#0 -1079347145#0 482053686 156709710#3 156709710#2 156709710#1 156709710#0 -48446412#4 48446412#5 48446483#0 -48446405#3"/>
    </person>
    <person id="ped14" type="ped_pedestrian" depart="6.22">
        <walk edges="-316453913#0 -174571256#3 -174571256#2 -488952659 667348036#3 667348036#2 667348036#1 667348036#0 -900225357 964267018#1 964267018#0 316453951 966896001 -900225011 900225012 900225258#0 -174550573 482053696 482053698 -905315352 482053699#0 156720371 -923973066#0 -923973066#1 -923973066#2 -923973066#3 -923973066#4 -923973066#5 156720176#2 156720176#1 -156720176#0 -900435189 900435189"/>
    </person>
    <person id="ped15" type="ped_pedestrian" depart="6.67">
        <walk edges="966896079#1 966896079#0 1218268381#1 966896028#1 966896028#0 899231507 900225413#7 900225413#6 900225413#5 900225413#4 900225413#3 900225413#2 900225413#1 900225413#0 316453951 964267018#0 964267018#1 -900225357 -667348036#0 -667348036#1 -667348036#2 -667348036#3 488952659 174571256#1 174571259#4 174571266#2 174571266#1 -174572454 -905030576 -488952664 -1184112487#2 -1184112487#1 -1184112487#0 174571269 488952665 -156708341#1 -174570536#0 156708440#1 667345446#0 1078358975#0 -174574825#0 174574825#0"/>
    </person>
    <person id="ped21" type="ped_pedestrian" depart="9.33">
        <walk edges="-904099235 -156720257#3 -156720257#4 -156720257#5 -156720257#6 -156720257#7 -156720257#8 -156720355#2 -156720355#3 -1192523106 892813004#2 -900435190 156720176#0 156720176#1 156720176#2 -923973066#5 -923973066#4 -923973066#3 -923973066#2 -923973066#1 -923973066#0 156720371 482053699#0 -905315352 -482053697 -482053696 174550573 -900225258#1 285327489#0 967398418#3 967398418#2 967398418#1 967398418#0 634042771#1 900157329#5 900157329#4 900157329#3 900157329#2 900157329#1 900157329#0 1188172698 900157332#4 900157332#3 900157332#2 900157332#1 1188171381#1 900226326#1 967397125 156708365#3 156708365#2 156708365#0 -156708405 -754629676 -754629674#0 -754629674#1 -754631968#2 314932009#1 314932009#2 -156708343#0 967396592 967396591 156708422#2 713808941 -314932011 177317382#3 -177317382#2"/>
    </person>
    <person id="ped22" type="ped_pedestrian" depart="9.78">
        <walk edges="-156708402#2 -176721953#0 176721953#1 176721953#2 176721953#3 -176721953#4 211404116#1 -156708356#0 -156708356#1 899220340#2 899220341#0 899220341#1 899220341#2 -1187931641 -177317392#1 -177317392#0 -138620688#4 -138620688#2 -138620688#1 -138620688#0 -156708299#2 -156708299#1 -156708299#0 -713656879 156708352#0 489067599#1 156708436#0 156708436#1 156708436#2 156708343#0 -314932009#2 -314932009#1 -754631968#2 -754629674#1 -754629674#0 -754629676 -156708405 156708365#0 156708365#2 156708365#3 967397125 -900157333#1 48446405#8 -48446405#7 -48446405#6 -48446405#5 -48446405#4 48446483#1 902517973 314934506#0 314934506#1 314934506#2 -48446497#4 -48446497#3 48446497#2 -48446514#1 -48446514#2 48446514#3 48446514#4 48446514#5 905879232#4 1074980473#1 1074980473#2 1186510790#0 -844390819#0 -844390819#1 362775135 156698719#1 -156708397#5 -156708397#4 -156708397#3 -156708397#2 -156708397#1 -156708328 -754633909 -211401238 -211401241 154952852 156599212#1 156599233 -237100800#1 -237062380#1 237100803 -154952910#4 -154952910#6 154952910#7 1061826294#0 1061826294#1 -154952864#1 -154952864#0 1039501931#0 1039501931#1 1039501931#2 1039501931#3 -154952924"/>
    </person>
    <person id="ped24" type="ped_pedestrian" depart="10.67">
        <walk edges="905886354#2 905886354#1 854382699 880998494#1 844390827#0 844390827#1 844390827#2 844390827#3 854706532#0 854382710#1"/>
    </person>
    <person id="ped27" type="ped_pedestrian" depart="12.00">
        <walk edges="-489067600 -314932005#1 -314932005#0 -156708298#1 -156708298#0 -211404116#2 -211404116#1 156708356#0 -156708356#1 899220340#2 899220341#0 899220341#1 899220341#2 -1187931641 -177317392#1 -177317392#0 -138620688#4 -138620688#2 -138620688#1 -138620688#0 -156708299#2 -156708299#1 -156708299#0 -713656879 156708352#0 -489067599#1 -156708436#0 -156708436#1 -156708436#2 900404952#0 156708315#4 156708315#3 156708315#2 156708315#1 156708315#0 -1201209644#1 174574394"/>
    </person>
    <person id="ped28" type="ped_pedestrian" depart="12.45">
        <walk edges="156720334#1 -315075417#0 -315075417#1 -315075417#2 156720321#1 156720321#0 315075406#4 -482053699#0 905315352 482053698 482053696 -174550573 900225258#0 900225012 -900225011 966896001 316453951 964267018#0 964267018#1 -900225357 667348036#0 667348036#1 667348036#2 667348036#3 -488952659 488952658#0 488952658#2 174571521#2 -174572459#0"/>
    </person>
    <person id="ped31" type="ped_pedestrian" depart="13.78">
        <walk edges="-1039501931#0 154952864#0 -154952864#1 1061826294#1 1061826294#0 154952910#7 -154952910#6 -154952910#4 237100803 -237062380#1 -237100800#1 156599233 156599212#1 154952852 -211401241 -211401238 -754633909 -156708328 -156708397#1 -156708397#2 -156708397#3 -156708397#4 -156708397#5 156698719#1 362775135 -844390819#1 -844390819#0 1186510790#0 1074980473#2 1074980473#1 905879232#4 48446514#5 48446514#4 48446514#3 -48446514#2 -48446514#1 48446497#2 -48446497#3 -48446497#4 314934506#2 314934506#1 314934506#0 902517973 48446483#1 48446483#0 48446412#5 -48446412#4 156709710#0 156709710#1 156709710#2 156709710#3 482053686 -1079347145#0 -156709715#0 -1079347143#2 156709694 900157329#0 900157329#1 900157329#2 900157329#3 900157329#4 900157329#5 634042771#1 967398418#0 967398418#1 967398418#2 967398418#3 285327489#0 -900225258#1 174550573 -482053696 -482053697 -905315352 482053699#0 156720371 -923973066#0 -923973066#1 -923973066#2 -923973066#3 -923973066#4 -923973066#5 156720176#2 156720176#1 156720176#0 -900435190 892813004#2 -1192523106 -156720355#3 -156720355#2 156720257#8 673241268#2 673241268#1 -673241268#0"/>
    </person>
    <person id="ped34" type="ped_pedestrian" depart="15.11">
        <walk edges="-156708299#2 -138620688#0 -138620688#1 -138620688#2 -138620688#4 -177317392#0 -177317392#1 -1187931641 899220341#2 899220341#1 899220341#0 899220340#2 899220340#3 899220340#4 899220340#5 899220340#6 489067607 -483843920 360758932#3"/>
    </person>
    <person id="ped35" type="ped_pedestrian" depart="15.56">
        <walk edges="1187931641 177317392#1 177317392#0 138620688#3 138620688#2 138620688#1 138620688#0 156708299#2 156708299#1 156708299#0 713656879 -156708352#0 -156708352#1 -713808941 -156708422#1 156698694#0 156698694#1 156698694#2 156698694#3"/>
    </person>
    <person id="ped36" type="ped_pedestrian" depart="16.00">
        <walk edges="-316317147#1 177317392#1 177317392#0 138620688#3 138620688#2 138620688#1 138620688#0 156708299#2 156708299#1 156708299#0 713656879 156708352#0 489067599#1 156708436#0 156708436#1 156708436#2 156708343#0 -314932009#2 -314932009#1 -754631968#2 -754629674#1 -754629674#0 -754629676 -156708405 156708365#0 156708365#2 156708365#3 967397125 -900157333#1 48446405#8 -48446405#7 -48446405#6 -48446405#5 -48446405#4 48446483#1 902517973 314934506#0 314934506#1 314934506#2 -48446497#4 -48446497#3 48446497#2 -48446514#1 -48446514#2 -48446514#3 -48446514#4 902634308 156708359#0 905879232#2 156708381#2 156708381#1 -156708351#0 -156708351#1 899224916#1 899224916#0 855187051#9 855187051#8 855187051#7 855187051#6 862061565 -862061568 862061564"/>
    </person>
    <person id="ped37" type="ped_pedestrian" depart="16.45">
        <walk edges="-175820987#5 -175820987#4 -175820987#3 -175820987#2 -40802855#1 -175820290#4 -175820290#5 -899472258 -1078359822#0 -1078359822#1 -175945043#1 314798997 314798808#2 -315392363 -40802520#5 -40802520#4 -40802520#2 40802481#0 40802481#1 -557354918#0"/>
    </person>
    <person id="ped39" type="ped_pedestrian" depart="17.33">
        <walk edges="-967089794 -363490227 -489067637#1 -571716014 -194731743 -156698694#2 -156698694#1 -156698694#0 156708422#1 -713808941 -156708352#1 -156708352#0 713656879 -156708299#0 -156708299#1 -156708299#2 -138620688#0 -138620688#1 -138620688#2 -138620688#4 -177317392#0 -177317392#1 -1187931641 899220341#2 899220341#1 899220341#0 137273377#2 137273377#0"/>
    </person>
    <person id="ped40" type="ped_pedestrian" depart="17.78">
        <walk edges="-237060070#0 894801589#1 -1061826294#1 -1061826294#0 -154952910#8 -154952910#6 -154952910#4 237100803 -237062380#1 -237100800#1 156599233 156599212#1 154952852 -211401241 -211401238 -754633909 -156708328 -156708397#1 -156708397#2 -156708397#3 -156708397#4 -156708397#5 156698719#1 362775135 -844390819#1 -844390819#0 1186510790#0 1074980473#2 1074980473#1 905879232#4 48446514#5 48446514#4 48446514#3 -48446514#2 -48446514#1 48446497#2 -48446497#3 -48446497#4 314934506#2 314934506#1 314934506#0 902517973 48446483#1 -48446405#4 -48446405#5 -48446405#6 -48446405#7 48446405#8 -900157333#1 967397125 156708365#3 156708365#2 156708365#0 -156708405 -754629676 -754629674#0 -754629674#1 -754631968#2 -314932009#1 -314932009#2 156708343#0 156708436#2 156708436#1 156708436#0 489067599#1 156708352#0 -713656879 -156708299#0 -156708299#1 -156708299#2 -138620688#0 -138620688#1 -138620688#2 -138620688#4 -177317392#0 -177317392#1"/>
    </person>
    <person id="ped41" type="ped_pedestrian" depart="18.22">
        <walk edges="-156708315#3 156708315#2 156708315#1 156708315#0 -1201209644#1 751348720 -173879013#3 -173879013#2 -173879013#1 -173879013#0 -174574388#2 -315026292#4 -315026292#6 -315026292#7 -315026295 -156708440#0 -174570536#0 -156708341#1 488952665 174571269 -1184112487#0 -1184112487#1 -1184112487#2 -488952664 -905030576 -174572454 -174571266#1 -174571266#2 -174571259#3 174571521#1 174571521#2"/>
    </person>
    <person id="ped43" type="ped_pedestrian" depart="19.11">
        <walk edges="854382699 905886354#1 844390825#1 844390825#0 905886353 854382697 844390820#1 -825659013#7 825659013#6 825659013#5 -825659013#4 825659013#3 211401240#0 -905879232#1 905879232#2 156708359#0 902634308 -48446514#4 -48446514#3 -48446514#2 -48446514#1 48446497#2 -48446497#3 -48446497#4 314934506#2 314934506#1 314934506#0 902517973 48446483#1 -48446405#4 -48446405#5 -48446405#6 -48446405#7 48446405#8 -900157333#1 967397125 156708365#3 156708365#2 156708365#0 -156708405 -754629676 -754629674#0 -754629674#1 -754631968#2 314932009#1 314932009#2 156708343#1 156708312#0 -156708315#3 -156708315#2"/>
    </person>
    <person id="ped44" type="ped_pedestrian" depart="19.56">
        <walk edges="-313258709#2 -313258709#3 -313258709#4 -316317128#0 -316317128#1 -316317128#2 -316317128#3 -489101590 489101591#3 489101591#2 -489101591#1 -489101591#0 -314845918#2 -314845918#1 -314845918#0 -175819917#3 -175819917#2 -315392354#3 175819919#1 175819919#0 1075543876 175820420#1 175820420#0 -894927044#0 -894927044#1 -175820422#0 -175820422#1 175820422#2"/>
    </person>
    <person id="ped45" type="ped_pedestrian" depart="20.00">
        <walk edges="900404952#1 900404952#0 -156708343#0 314932009#2 314932009#1 -754631968#2 -754629674#1 -754629674#0 -754629676 -156708405 156708365#0 156708365#2 156708365#3 967397125 -900157333#1 48446405#8 -48446405#7 -48446405#6 -48446405#5 -48446405#4 48446483#1 902517973 314934506#0 314934506#1 314934506#2 -48446497#4 -48446497#3 48446497#2 -48446514#1 -48446514#2 48446514#3 48446514#4 48446514#5 905879232#4 1074980473#1 1074980473#2 1186510790#0 -844390819#0 -844390819#1 362775135 156698719#1 -156708397#5 -156708397#4 -156708397#3 -156708397#2 156708397#1"/>
    </person>
    <person id="ped46" type="ped_pedestrian" depart="20.45">
        <walk edges="1165470064 -156530784#1 -156530784#2 -156530784#3 156720147#2 892813004#4 892813004#3 892813004#2 -900435190 156720176#0 156720176#1 156720176#2 -923973066#5 -923973066#4 -923973066#3 -923973066#2 -923973066#1 -923973066#0 156720371 482053699#0 -905315352 -482053697 -482053696 174550573 -900225258#1 285327489#0 967398418#3 967398418#2 967398418#1 967398418#0 634042771#1 900157329#5 900157329#4 900157329#3 900157329#2 900157329#1 900157329#0 156709694 -1079347143#2 -156709715#0 -1079347145#0 482053686 156709710#3 156709710#2 156709710#1 156709710#0 -48446412#4 48446412#5 48446483#0"/>
    </person>
    <person id="ped47" type="ped_pedestrian" depart="20.89">
        <walk edges="314800853 156672724#1 156672718#1 156672718#0 40802699#1 -40802699#0 -156672719#0 -315392364#6 -315392363 314798808#2 314798997 -175945043#1 -1078359822#1 -1078359822#0 -899472258 -175820290#5 -175820290#4 -175820290#3 -175820290#2 175820823#1"/>
    </person>
    <person id="ped48" type="ped_pedestrian" depart="21.33">
        <walk edges="-904945205#1 -156708341#5 -156708341#6 967397125 -900157333#1 48446405#8 -48446405#7 -48446405#6 -48446405#5 -48446405#4 48446483#1 902517973 314934506#0 314934506#1 314934506#2 -48446497#4 -48446497#3 48446497#2 -48446514#1 -48446514#2 -48446514#3 -48446514#4 902634308 156708359#0 905879232#2 -905879232#1 211401240#0 825659013#3 -825659013#3"/>
    </person>
    <person id="ped49" type="ped_pedestrian" depart="21.78">
        <walk edges="854699547#0 854382709#0 854382692#2 854382692#1 854382692#0 -825659013#4 825659013#3 211401240#0 -905879232#1 905879232#2 156708359#0 902634308 -48446514#4 -48446514#3 -48446514#2 -48446514#1 48446497#2 -48446497#3 -48446497#4 314934506#2 314934506#1 314934506#0 902517973 48446483#1 48446483#0 48446412#5 48446412#4 -156709710#0 -156709710#1 -314934512#2"/>
    </person>
    <person id="ped50" type="ped_pedestrian" depart="22.22">
        <walk edges="-905791761 -175820950#2 -175820950#3 -175820950#4 489101582#0 905789618#0 905789618#1 905789618#2 905789618#3 905789617 905809212 175820290#0 175820290#1 175820290#2 175820290#3 175820290#4 175820290#5 899472258 1078359822#0 1078359822#1 -175945043#1 314798997 314798808#2 -315392363 -40802520#5 -40802520#4 -40802520#2 -40802520#1 -40802520#0 1311338260 -40801490#0 -40801490#1 -40801490#3"/>
    </person>
    <person id="ped51" type="ped_pedestrian" depart="22.67">
        <walk edges="156698719#3 156698719#2 156698719#1 362775135 -844390819#1 -844390819#0 1186510790#0 1074980473#2 1074980473#1 905879232#4 48446514#5 48446514#4 48446514#3 -48446514#2 -48446514#1 48446497#2 -48446497#3 -48446497#4 314934506#2 314934506#1 314934506#0 902517973 48446483#1 48446483#0 48446412#5 -48446412#4 156709710#0 156709710#1 156709710#2 156709710#3 482053686 -1079347145#0 -156709715#0 -1079347143#2 156709694 900157329#0 900157329#1 900157329#2 900157329#3 900157329#4 900157329#5 634042771#1 967398418#0 967398418#1 967398418#2 967398418#3 285327489#0 -900225258#1 174550573 -482053696 -482053697 -905315352 482053699#0 156720371 -923973066#0 -923973066#1 -923973066#2 -923973066#3 -923973066#4 -923973066#5 156720176#2 156720176#1 156720176#0 -900435190 892813004#2 156720355#4 156720355#3 156720361#4 156720361#3 156720361#2 156720361#1 -156530759#1 -156530759#0"/>
    </person>
    <person id="ped53" type="ped_pedestrian" depart="23.56">
        <walk edges="-316317148 156708318#0 156708318#2 489084328#0 1087399448 177317382#0 177317382#1 177317382#2 177317382#3 -314932011 713808941 156708422#2 967396591 967396592 -156708343#0 314932009#2 314932009#1 -754631968#2 -754629674#1 -754629674#0 -754629676 -156708405 156708365#0 156708365#2 156708365#3 967397125 -900157333#1 48446405#8 48446405#7 48446405#6 48446449#1"/>
    </person>
    <person id="ped54" type="ped_pedestrian" depart="24.00">
        <walk edges="1074980473#1 1074980473#2 1186510790#0 -844390819#0 -844390819#1 362775135 156698719#1 -156708397#5 -156708397#4 -156708397#3 -156708397#2 -156708397#1 -156708328 -754633909 -211401238 -211401241 154952852 156599212#1 156599233 -237100800#1 -237062380#1 237100803 -154952910#4 -154952910#6 154952910#7 1061826294#0 1061826294#1 1061826294#2 -237060071 -893293923 905879226#2 905879226#1 905879226#0 -752714346 905879229 673024600 -154952925#2 154952911#0 -905879230#1 -905879230#0"/>
    </person>
    <person id="ped55" type="ped_pedestrian" depart="24.45">
        <walk edges="156708331 156708343#2 156708343#1 314932009#2 314932009#1 -754631968#2 -754629674#1 -754629674#0 -754629676 -156708405 156708365#0 156708365#2 156708365#3 967397125 -900157333#1 48446405#8 -48446405#7 -48446405#6 -48446405#5 -48446405#4 48446483#1 902517973 314934506#0 314934506#1 314934506#2 -48446497#4 -48446497#3 48446497#2 -48446514#1 -48446514#2 48446514#3 48446514#4 48446514#5 905879232#4 1074980473#1 1074980473#2 1186510790#0 -844390819#0 -844390819#1 362775135 156698719#1 -156708397#5 -156708397#4 -156708397#3 -156708397#2 -156708397#1 -156708328 -754633909 -211401238 -211401241 154952852 156599212#1 156599233 -237100800#1 -237062380#1 237100803 -154952910#4 -154952910#6 -154952910#8 1061826295#0 237100805"/>
    </person>
    <person id="ped57" type="ped_pedestrian" depart="25.33">
        <walk edges="-156599180 -156599153#6 156599153#5 156599153#4 156599153#3 156599153#2 156599153#1 156599153#0 154952910#4 237100803 -237062380#1 -237100800#1 156599233 156599212#1 154952852 -211401241 -211401238 -754633909 -156708328 -156708397#1 -156708397#2 -156708397#3 -156708397#4 -156708397#5 156698719#1 362775135 -844390819#1 -844390819#0 1186510790#0 1074980473#2 1074980473#1 905879232#4 48446514#5 48446514#4 48446514#3 -48446514#2 -48446514#1 48446497#2 -48446497#3 -48446497#4 314934506#2 314934506#1 314934506#0 902517973 48446483#1 48446483#0 48446412#5 -48446412#4 156709710#0 156709710#1 156709710#2 156709710#3 482053686 -1079347145#0 -156709708#2 156709708#1"/>
    </person>
    <person id="ped60" type="ped_pedestrian" depart="26.67">
        <walk edges="894807341#0 -894807341#1 894194886#1 156709698 902517973 48446483#1 -48446405#4 -48446405#5 -48446405#6 -48446405#7 48446405#8 -900157333#1 967397125 156708365#3 156708365#2 156708365#0 -156708405 -754629676 -754629674#0 -754629674#1 -754631968#2 -314932009#1 -314932009#2 156708343#0 156708436#2 -156708332#0 156708332#1 211404493#5 -314932010"/>
    </person>
    <person id="ped61" type="ped_pedestrian" depart="27.11">
        <walk edges="-905732824 905732824 1218268378 -966896079#1 -966896079#2 966896079#2 966896079#1 966896079#0 1218268381#1 966896028#1 966896028#0 899231507 900225413#7 900225413#6 900225413#5 900225413#4 900225413#3 900225413#2 900225413#1 900225413#0 967398418#5 967398418#3 967398418#2 967398418#1 967398418#0 634042771#1 900157329#5 900157329#4 900157329#3 900157329#2 900157329#1 900157329#0 156709694 -1079347143#2 -156709707#1 156709707#2"/>
    </person>
    <person id="ped62" type="ped_pedestrian" depart="27.56">
        <walk edges="154952817#1 154952817#2 156720257#2 156720257#3 156720257#4 156720257#5 156720257#6 156720257#7 -156720257#8 -156720355#2 -156720355#3 -1192523106 892813004#2 -900435190 156720176#0 156720176#1 156720176#2 -923973066#5 -923973066#4 -923973066#3 -923973066#2 -923973066#1 -923973066#0 156720371 482053699#0 -905315352 482053698 482053696 -174550573 900225258#0 900225012 -900225011 966896001 316453951 964267018#0 964267018#1 -900225357 -667348036#0 -667348036#1 -667348036#2 -667348036#3 488952659 174571256#1 174571259#4 174571266#2 174571266#1 -174572454 -905030576 -488952664 -1184112487#2 1184112487#1 -667348037 905027481#2 905027481#1 694502257#1 694502257#0 900226103#2"/>
    </person>
    <person id="ped64" type="ped_pedestrian" depart="28.45">
        <walk edges="-616456704 616456704 -294777991#2 -294777991#3 362416757 -966764468 40802520#0 -156672724#3 -156672724#2 -156672724#1 -156672724#0 1051022911 1051022908 -905371770 939937886 313319221#0 -899484087#1 -899484087#0 -175937071#1 316317133#0"/>
    </person>
    <person id="ped66" type="ped_pedestrian" depart="29.33">
        <walk edges="968255327#0 968255327#1 -482053699#1 -482053699#0 905315352 482053698 482053696 -174550573 900225258#1 -285327489#0 967398418#3 967398418#2 967398418#1 967398418#0 634042771#1 900157329#5 900157329#4 900157329#3 900157329#2 900157329#1 900157329#0 -1188172698 -1188172697 -900157332#3 -900157332#2 -900157332#1 -900157332#0 482053684 967397641 967397120 905027478 -967396905#6 -967396905#5 -967396905#4 967396905#3 967396905#2 967396905#1 967396905#0 967396906"/>
    </person>
    <person id="ped67" type="ped_pedestrian" depart="29.78">
        <walk edges="880998492 844390827#0 880998494#1 854382699 905886354#1 844390825#1 844390825#0 905886353 854382697 844390820#1 -825659013#7 825659013#6 825659013#5 -825659013#4 825659013#3 211401240#0 -905879232#1 905879232#2 156708359#0 902634308 -48446514#4 -48446514#3 -48446514#2 -48446514#1 48446497#2 -48446497#3 -48446497#4 314934506#2 314934506#1 314934506#0 902517973 48446483#1 -48446405#4 -48446405#5 -48446405#6 -48446405#7 48446405#8 -900157333#1 967397125 156708365#3 156708365#2 156708365#0 -156708405 -754629676 -754629674#0 -754629674#1 -754631968#2 -314932009#1 -314932009#2 156708343#0 156708436#2 156708436#1 156708436#0 489067599#1 156708352#0 -713656879 -156708299#0 -156708299#1 -156708299#2 -138620688#0 -138620688#1 -138620688#2 -138620688#4 -177317392#0 -177317392#1 -1187931641 899220341#2 899220341#1 899220341#0 137273377#2 137273377#0 156708374#3 156708374#2 -156708374#1 -156708374#0 -1073760131#1 1073760131#0 -905947790#0 -905947790#1 -966900601 -966900602#0 880895465 -880895469#2 -880895469#1 880895469#0"/>
    </person>
    <person id="ped68" type="ped_pedestrian" depart="30.22">
        <walk edges="751348719#1 751348720 -1201209644#1 156708315#0 156708315#1 156708315#2 156708315#3 156708315#4 900404952#0 -156708436#2 -156708436#1 -156708436#0 -489067599#1 156708352#0 -713656879 -156708299#0 -156708299#1 -156708299#2 -138620688#0 -138620688#1 -138620688#2 -138620688#4 -177317392#0 -177317392#1 -1187931641 899220341#2 899220341#1 899220341#0 137273377#2 137273377#0 156708374#3 156708374#2 156708348#2 362775137#1 362775137#0 -156708414#0 156708401#1 176722847#4 176722847#3 176722847#2 176722847#1 176722847#0"/>
    </person>
    <person id="ped72" type="ped_pedestrian" depart="32.00">
        <walk edges="826357365#4 854382692#1 854382692#0 -825659013#4 825659013#3 211401240#0 -905879232#1 -905879232#2 -905879232#3 -905879232#4 -1074980473#1 -1074980473#2 -1186510790#1 -844390819#0 -844390819#1 362775135 156698719#1 -156708397#5 -156708397#4 -156708409#2 -156708409#1"/>
    </person>
    <person id="ped74" type="ped_pedestrian" depart="32.89">
        <walk edges="-1051022910#1 -156672724#0 -156672724#1 -156672724#2 -156672724#3 40802520#0 1311338260 -40801490#0 -40801490#1 -40801558#1 40801550#0"/>
    </person>
    <person id="ped77" type="ped_pedestrian" depart="34.22">
        <walk edges="-315026292#1 315026292#2 315026292#4 315026292#6 315026292#7 967396906 967396905#0 967396905#1 967396905#2 967396905#3 -967396905#4 -967396905#5 -967396905#6 905027478 967397120 967397641 482053684 1188171381#1 900157332#1 900157332#2 900157332#3 -156709708#4"/>
    </person>
    <person id="ped78" type="ped_pedestrian" depart="34.67">
        <walk edges="482053738 -482053734 482053736 156720330#1 156720330#0 904082957#0 156720157#1 156720147#0 156720147#1 156720147#2 156720147#3 156720361#0 156720361#1 156720361#2 -1185646807 156720291 -156720301#2 892961024"/>
    </person>
    <person id="ped79" type="ped_pedestrian" depart="35.11">
        <walk edges="-174574390 315026293#2 156708315#0 156708315#1 156708315#2 156708315#3 156708312#0 156708343#1 314932009#2 314932009#1 -754631968#2 -754629674#1 -754629674#0 -754629676 -156708405 156708365#0 156708365#2 156708365#3 967397125 900226326#1 1188171381#1 900157332#1 900157332#2 900157332#3 900157332#4 1188172698 900157329#0 900157329#1 900157329#2 900157329#3 900157329#4"/>
    </person>