<?xml version="1.0" encoding="UTF-8"?>

<!-- generated on 2024-10-18 12:43:22.759488 by generateParkingAreas.py UNKNOWN
<configuration>
    <net-file value="osm.net.xml"/>
    <output-file value="park.add.xml"/>
</configuration>
-->

<additional xmlns:xsi="http://www.w3.org/2001/XMLSchema-instance" xsi:noNamespaceSchemaLocation="http://sumo.dlr.de/xsd/additional_file.xsd">
    <parkingArea id="pa-1063744855#0" lane="-1063744855#0_0" roadsideCapacity="9" length="5"/>
    <parkingArea id="pa-1063744855#1" lane="-1063744855#1_0" roadsideCapacity="3" length="5"/>
    <parkingArea id="pa-1072472445#0" lane="-1072472445#0_0" roadsideCapacity="15" length="5"/>
    <parkingArea id="pa-1072472445#10" lane="-1072472445#10_0" roadsideCapacity="19" length="5"/>
    <parkingArea id="pa-1072472445#11" lane="-1072472445#11_0" roadsideCapacity="4" length="5"/>
    <parkingArea id="pa-1072472445#2" lane="-1072472445#2_0" roadsideCapacity="25" length="5"/>
    <parkingArea id="pa-1072472445#3" lane="-1072472445#3_0" roadsideCapacity="11" length="5"/>
    <parkingArea id="pa-1072472445#5" lane="-1072472445#5_0" roadsideCapacity="11" length="5"/>
    <parkingArea id="pa-1072472445#6" lane="-1072472445#6_0" roadsideCapacity="9" length="5"/>
    <parkingArea id="pa-1072472445#7" lane="-1072472445#7_0" roadsideCapacity="17" length="5"/>
    <parkingArea id="pa-1072472445#8" lane="-1072472445#8_0" roadsideCapacity="17" length="5"/>
    <parkingArea id="pa-1072472445#9" lane="-1072472445#9_0" roadsideCapacity="31" length="5"/>
    <parkingArea id="pa-1076220170" lane="-1076220170_0" roadsideCapacity="9" length="5"/>
    <parkingArea id="pa-1076220192" lane="-1076220192_0" roadsideCapacity="8" length="5"/>
    <parkingArea id="pa-1078232757#0" lane="-1078232757#0_0" roadsideCapacity="7" length="5"/>
    <parkingArea id="pa-1078232757#1" lane="-1078232757#1_0" roadsideCapacity="2" length="5"/>
    <parkingArea id="pa-1078232757#2" lane="-1078232757#2_0" roadsideCapacity="15" length="5"/>
    <parkingArea id="pa-1078358941#0" lane="-1078358941#0_0" roadsideCapacity="36" length="5"/>
    <parkingArea id="pa-1078358941#1" lane="-1078358941#1_0" roadsideCapacity="4" length="5"/>
    <parkingArea id="pa-1078358941#3" lane="-1078358941#3_0" roadsideCapacity="6" length="5"/>
    <parkingArea id="pa-1078358941#4" lane="-1078358941#4_0" roadsideCapacity="8" length="5"/>
    <parkingArea id="pa-1078685246#0" lane="-1078685246#0_0" roadsideCapacity="8" length="5"/>
    <parkingArea id="pa-1078685246#1" lane="-1078685246#1_0" roadsideCapacity="12" length="5"/>
    <parkingArea id="pa-1078685246#2" lane="-1078685246#2_0" roadsideCapacity="11" length="5"/>
    <parkingArea id="pa-1078685247" lane="-1078685247_0" roadsideCapacity="6" length="5"/>
    <parkingArea id="pa-1078685248#0" lane="-1078685248#0_0" roadsideCapacity="45" length="5"/>
    <parkingArea id="pa-1078685248#1" lane="-1078685248#1_0" roadsideCapacity="11" length="5"/>
    <parkingArea id="pa-1078685248#2" lane="-1078685248#2_0" roadsideCapacity="22" length="5"/>
    <parkingArea id="pa-1078685249#0" lane="-1078685249#0_0" roadsideCapacity="6" length="5"/>
    <parkingArea id="pa-1078685249#1" lane="-1078685249#1_0" roadsideCapacity="9" length="5"/>
    <parkingArea id="pa-1078685249#2" lane="-1078685249#2_0" roadsideCapacity="15" length="5"/>
    <parkingArea id="pa-1078685249#3" lane="-1078685249#3_0" roadsideCapacity="14" length="5"/>
    <parkingArea id="pa-1078712584#0" lane="-1078712584#0_0" roadsideCapacity="8" length="5"/>
    <parkingArea id="pa-1078712584#3" lane="-1078712584#3_0" roadsideCapacity="8" length="5"/>
    <parkingArea id="pa-1165471711" lane="-1165471711_0" roadsideCapacity="4" length="5"/>
    <parkingArea id="pa-1181045749" lane="-1181045749_0" roadsideCapacity="10" length="5"/>
    <parkingArea id="pa-1184167451" lane="-1184167451_0" roadsideCapacity="10" length="5"/>
    <parkingArea id="pa-1187401054" lane="-1187401054_0" roadsideCapacity="7" length="5"/>
    <parkingArea id="pa-1187969508" lane="-1187969508_0" roadsideCapacity="3" length="5"/>
    <parkingArea id="pa-1188176387" lane="-1188176387_0" roadsideCapacity="8" length="5"/>
    <parkingArea id="pa-1188363187#0" lane="-1188363187#0_0" roadsideCapacity="37" length="5"/>
    <parkingArea id="pa-1217154135" lane="-1217154135_0" roadsideCapacity="9" length="5"/>
    <parkingArea id="pa-1266569730" lane="-1266569730_0" roadsideCapacity="12" length="5"/>
    <parkingArea id="pa-151159983#0" lane="-151159983#0_0" roadsideCapacity="24" length="5"/>
    <parkingArea id="pa-151159983#1" lane="-151159983#1_0" roadsideCapacity="10" length="5"/>
    <parkingArea id="pa-151159983#2" lane="-151159983#2_0" roadsideCapacity="7" length="5"/>
    <parkingArea id="pa-151159983#3" lane="-151159983#3_0" roadsideCapacity="5" length="5"/>
    <parkingArea id="pa-151159983#4" lane="-151159983#4_0" roadsideCapacity="7" length="5"/>
    <parkingArea id="pa-151159983#5" lane="-151159983#5_0" roadsideCapacity="6" length="5"/>
    <parkingArea id="pa-151159983#6" lane="-151159983#6_0" roadsideCapacity="24" length="5"/>
    <parkingArea id="pa-154952787#0" lane="-154952787#0_0" roadsideCapacity="43" length="5"/>
    <parkingArea id="pa-154952787#1" lane="-154952787#1_0" roadsideCapacity="13" length="5"/>
    <parkingArea id="pa-154952787#2" lane="-154952787#2_0" roadsideCapacity="9" length="5"/>
    <parkingArea id="pa-154952787#3" lane="-154952787#3_0" roadsideCapacity="2" length="5"/>
    <parkingArea id="pa-156610085#1" lane="-156610085#1_0" roadsideCapacity="1" length="5"/>
    <parkingArea id="pa-156610085#2" lane="-156610085#2_0" roadsideCapacity="6" length="5"/>
    <parkingArea id="pa-156610085#3" lane="-156610085#3_0" roadsideCapacity="4" length="5"/>
    <parkingArea id="pa-156610085#4" lane="-156610085#4_0" roadsideCapacity="4" length="5"/>
    <parkingArea id="pa-156698728#0" lane="-156698728#0_0" roadsideCapacity="3" length="5"/>
    <parkingArea id="pa-156708319" lane="-156708319_0" roadsideCapacity="3" length="5"/>
    <parkingArea id="pa-156708383" lane="-156708383_0" roadsideCapacity="21" length="5"/>
    <parkingArea id="pa-156708421#0" lane="-156708421#0_0" roadsideCapacity="19" length="5"/>
    <parkingArea id="pa-156708421#1" lane="-156708421#1_0" roadsideCapacity="12" length="5"/>
    <parkingArea id="pa-156720184#0" lane="-156720184#0_0" roadsideCapacity="12" length="5"/>
    <parkingArea id="pa-156720184#1" lane="-156720184#1_0" roadsideCapacity="8" length="5"/>
    <parkingArea id="pa-156720184#2" lane="-156720184#2_0" roadsideCapacity="2" length="5"/>
    <parkingArea id="pa-156720190#0" lane="-156720190#0_0" roadsideCapacity="24" length="5"/>
    <parkingArea id="pa-156720190#1" lane="-156720190#1_0" roadsideCapacity="13" length="5"/>
    <parkingArea id="pa-156720190#2" lane="-156720190#2_0" roadsideCapacity="19" length="5"/>
    <parkingArea id="pa-156720190#3" lane="-156720190#3_0" roadsideCapacity="7" length="5"/>
    <parkingArea id="pa-156720190#4" lane="-156720190#4_0" roadsideCapacity="10" length="5"/>
    <parkingArea id="pa-156720190#5" lane="-156720190#5_0" roadsideCapacity="23" length="5"/>
    <parkingArea id="pa-156720191" lane="-156720191_0" roadsideCapacity="10" length="5"/>
    <parkingArea id="pa-156720197" lane="-156720197_0" roadsideCapacity="8" length="5"/>
    <parkingArea id="pa-156720209" lane="-156720209_0" roadsideCapacity="5" length="5"/>
    <parkingArea id="pa-156720210" lane="-156720210_0" roadsideCapacity="2" length="5"/>
    <parkingArea id="pa-156720216" lane="-156720216_0" roadsideCapacity="7" length="5"/>
    <parkingArea id="pa-156720218" lane="-156720218_0" roadsideCapacity="11" length="5"/>
    <parkingArea id="pa-156720227#0" lane="-156720227#0_0" roadsideCapacity="8" length="5"/>
    <parkingArea id="pa-156720227#1" lane="-156720227#1_0" roadsideCapacity="3" length="5"/>
    <parkingArea id="pa-156720227#3" lane="-156720227#3_0" roadsideCapacity="3" length="5"/>
    <parkingArea id="pa-156720227#4" lane="-156720227#4_0" roadsideCapacity="3" length="5"/>
    <parkingArea id="pa-156720227#5" lane="-156720227#5_0" roadsideCapacity="17" length="5"/>
    <parkingArea id="pa-156720227#7" lane="-156720227#7_0" roadsideCapacity="2" length="5"/>
    <parkingArea id="pa-156720228" lane="-156720228_0" roadsideCapacity="7" length="5"/>
    <parkingArea id="pa-156720262#0" lane="-156720262#0_0" roadsideCapacity="5" length="5"/>
    <parkingArea id="pa-156720262#1" lane="-156720262#1_0" roadsideCapacity="17" length="5"/>
    <parkingArea id="pa-156720262#2" lane="-156720262#2_0" roadsideCapacity="9" length="5"/>
    <parkingArea id="pa-156720262#4" lane="-156720262#4_0" roadsideCapacity="3" length="5"/>
    <parkingArea id="pa-156720262#6" lane="-156720262#6_0" roadsideCapacity="10" length="5"/>
    <parkingArea id="pa-156720262#7" lane="-156720262#7_0" roadsideCapacity="81" length="5"/>
    <parkingArea id="pa-156720290#0" lane="-156720290#0_0" roadsideCapacity="10" length="5"/>
    <parkingArea id="pa-156720290#1" lane="-156720290#1_0" roadsideCapacity="8" length="5"/>
    <parkingArea id="pa-156720290#2" lane="-156720290#2_0" roadsideCapacity="2" length="5"/>
    <parkingArea id="pa-156720298" lane="-156720298_0" roadsideCapacity="20" length="5"/>
    <parkingArea id="pa-156720307#0" lane="-156720307#0_0" roadsideCapacity="5" length="5"/>
    <parkingArea id="pa-156720307#1" lane="-156720307#1_0" roadsideCapacity="5" length="5"/>
    <parkingArea id="pa-156720307#2" lane="-156720307#2_0" roadsideCapacity="4" length="5"/>
    <parkingArea id="pa-156720307#3" lane="-156720307#3_0" roadsideCapacity="1" length="5"/>
    <parkingArea id="pa-156720322#0" lane="-156720322#0_0" roadsideCapacity="4" length="5"/>
    <parkingArea id="pa-156720322#1" lane="-156720322#1_0" roadsideCapacity="21" length="5"/>
    <parkingArea id="pa-156720372" lane="-156720372_0" roadsideCapacity="16" length="5"/>
    <parkingArea id="pa-174550522#0" lane="-174550522#0_0" roadsideCapacity="28" length="5"/>
    <parkingArea id="pa-174550522#1" lane="-174550522#1_0" roadsideCapacity="13" length="5"/>
    <parkingArea id="pa-174550522#2" lane="-174550522#2_0" roadsideCapacity="13" length="5"/>
    <parkingArea id="pa-174550522#3" lane="-174550522#3_0" roadsideCapacity="15" length="5"/>
    <parkingArea id="pa-174550522#4" lane="-174550522#4_0" roadsideCapacity="13" length="5"/>
    <parkingArea id="pa-174550522#5" lane="-174550522#5_0" roadsideCapacity="14" length="5"/>
    <parkingArea id="pa-174550523#0" lane="-174550523#0_0" roadsideCapacity="15" length="5"/>
    <parkingArea id="pa-174550523#1" lane="-174550523#1_0" roadsideCapacity="14" length="5"/>
    <parkingArea id="pa-174550526#0" lane="-174550526#0_0" roadsideCapacity="17" length="5"/>
    <parkingArea id="pa-174550526#1" lane="-174550526#1_0" roadsideCapacity="16" length="5"/>
    <parkingArea id="pa-174550526#2" lane="-174550526#2_0" roadsideCapacity="14" length="5"/>
    <parkingArea id="pa-174550526#3" lane="-174550526#3_0" roadsideCapacity="30" length="5"/>
    <parkingArea id="pa-174550526#4" lane="-174550526#4_0" roadsideCapacity="32" length="5"/>
    <parkingArea id="pa-174550576#0" lane="-174550576#0_0" roadsideCapacity="8" length="5"/>
    <parkingArea id="pa-174550576#1" lane="-174550576#1_0" roadsideCapacity="10" length="5"/>
    <parkingArea id="pa-174550581#0" lane="-174550581#0_0" roadsideCapacity="17" length="5"/>
    <parkingArea id="pa-174550581#1" lane="-174550581#1_0" roadsideCapacity="4" length="5"/>
    <parkingArea id="pa-174550581#2" lane="-174550581#2_0" roadsideCapacity="1" length="5"/>
    <parkingArea id="pa-174550581#3" lane="-174550581#3_0" roadsideCapacity="9" length="5"/>
    <parkingArea id="pa-174550581#4" lane="-174550581#4_0" roadsideCapacity="10" length="5"/>
    <parkingArea id="pa-174550616" lane="-174550616_0" roadsideCapacity="12" length="5"/>
    <parkingArea id="pa-174550620" lane="-174550620_0" roadsideCapacity="8" length="5"/>
    <parkingArea id="pa-174555687#0" lane="-174555687#0_0" roadsideCapacity="20" length="5"/>
    <parkingArea id="pa-174555687#1" lane="-174555687#1_0" roadsideCapacity="6" length="5"/>
    <parkingArea id="pa-174555687#2" lane="-174555687#2_0" roadsideCapacity="5" length="5"/>
    <parkingArea id="pa-174555687#3" lane="-174555687#3_0" roadsideCapacity="13" length="5"/>
    <parkingArea id="pa-174555687#4" lane="-174555687#4_0" roadsideCapacity="9" length="5"/>
    <parkingArea id="pa-174555687#5" lane="-174555687#5_0" roadsideCapacity="15" length="5"/>
    <parkingArea id="pa-174555688#0" lane="-174555688#0_0" roadsideCapacity="35" length="5"/>
    <parkingArea id="pa-174555688#2" lane="-174555688#2_0" roadsideCapacity="35" length="5"/>
    <parkingArea id="pa-174555688#3" lane="-174555688#3_0" roadsideCapacity="9" length="5"/>
    <parkingArea id="pa-174555688#4" lane="-174555688#4_0" roadsideCapacity="16" length="5"/>
    <parkingArea id="pa-174571253#0" lane="-174571253#0_0" roadsideCapacity="7" length="5"/>
    <parkingArea id="pa-174571253#1" lane="-174571253#1_0" roadsideCapacity="16" length="5"/>
    <parkingArea id="pa-174571253#2" lane="-174571253#2_0" roadsideCapacity="10" length="5"/>
    <parkingArea id="pa-174571262#0" lane="-174571262#0_0" roadsideCapacity="10" length="5"/>
    <parkingArea id="pa-174571262#1" lane="-174571262#1_0" roadsideCapacity="2" length="5"/>
    <parkingArea id="pa-174571262#2" lane="-174571262#2_0" roadsideCapacity="2" length="5"/>
    <parkingArea id="pa-174571262#3" lane="-174571262#3_0" roadsideCapacity="5" length="5"/>
    <parkingArea id="pa-174574393#0" lane="-174574393#0_0" roadsideCapacity="13" length="5"/>
    <parkingArea id="pa-174659556#0" lane="-174659556#0_0" roadsideCapacity="91" length="5"/>
    <parkingArea id="pa-174659556#1" lane="-174659556#1_0" roadsideCapacity="17" length="5"/>
    <parkingArea id="pa-174661155" lane="-174661155_0" roadsideCapacity="49" length="5"/>
    <parkingArea id="pa-174662947" lane="-174662947_0" roadsideCapacity="37" length="5"/>
    <parkingArea id="pa-174662952" lane="-174662952_0" roadsideCapacity="61" length="5"/>
    <parkingArea id="pa-174687952#0" lane="-174687952#0_0" roadsideCapacity="5" length="5"/>
    <parkingArea id="pa-174687952#1" lane="-174687952#1_0" roadsideCapacity="7" length="5"/>
    <parkingArea id="pa-175819911#0" lane="-175819911#0_0" roadsideCapacity="14" length="5"/>
    <parkingArea id="pa-175819911#1" lane="-175819911#1_0" roadsideCapacity="17" length="5"/>
    <parkingArea id="pa-175819911#2" lane="-175819911#2_0" roadsideCapacity="48" length="5"/>
    <parkingArea id="pa-175820286" lane="-175820286_0" roadsideCapacity="16" length="5"/>
    <parkingArea id="pa-175820820" lane="-175820820_0" roadsideCapacity="6" length="5"/>
    <parkingArea id="pa-175820822#0" lane="-175820822#0_0" roadsideCapacity="15" length="5"/>
    <parkingArea id="pa-175820822#1" lane="-175820822#1_0" roadsideCapacity="7" length="5"/>
    <parkingArea id="pa-175820822#2" lane="-175820822#2_0" roadsideCapacity="24" length="5"/>
    <parkingArea id="pa-175820822#3" lane="-175820822#3_0" roadsideCapacity="18" length="5"/>
    <parkingArea id="pa-204052437" lane="-204052437_0" roadsideCapacity="25" length="5"/>
    <parkingArea id="pa-204052439#0" lane="-204052439#0_0" roadsideCapacity="12" length="5"/>
    <parkingArea id="pa-204052439#1" lane="-204052439#1_0" roadsideCapacity="6" length="5"/>
    <parkingArea id="pa-204052439#2" lane="-204052439#2_0" roadsideCapacity="11" length="5"/>
    <parkingArea id="pa-237008593#0" lane="-237008593#0_0" roadsideCapacity="27" length="5"/>
    <parkingArea id="pa-237008593#1" lane="-237008593#1_0" roadsideCapacity="2" length="5"/>
    <parkingArea id="pa-237008593#2" lane="-237008593#2_0" roadsideCapacity="4" length="5"/>
    <parkingArea id="pa-237065568#0" lane="-237065568#0_0" roadsideCapacity="17" length="5"/>
    <parkingArea id="pa-237065568#1" lane="-237065568#1_0" roadsideCapacity="8" length="5"/>
    <parkingArea id="pa-237065568#2" lane="-237065568#2_0" roadsideCapacity="6" length="5"/>
    <parkingArea id="pa-237065581#0" lane="-237065581#0_0" roadsideCapacity="17" length="5"/>
    <parkingArea id="pa-237065581#1" lane="-237065581#1_0" roadsideCapacity="14" length="5"/>
    <parkingArea id="pa-237065589#1" lane="-237065589#1_0" roadsideCapacity="2" length="5"/>
    <parkingArea id="pa-237065589#2" lane="-237065589#2_0" roadsideCapacity="3" length="5"/>
    <parkingArea id="pa-237065589#3" lane="-237065589#3_0" roadsideCapacity="9" length="5"/>
    <parkingArea id="pa-254629119#0" lane="-254629119#0_0" roadsideCapacity="10" length="5"/>
    <parkingArea id="pa-254629119#1" lane="-254629119#1_0" roadsideCapacity="9" length="5"/>
    <parkingArea id="pa-254629119#2" lane="-254629119#2_0" roadsideCapacity="29" length="5"/>
    <parkingArea id="pa-254629119#3" lane="-254629119#3_0" roadsideCapacity="10" length="5"/>
    <parkingArea id="pa-267315594#0" lane="-267315594#0_0" roadsideCapacity="3" length="5"/>
    <parkingArea id="pa-267315594#1" lane="-267315594#1_0" roadsideCapacity="39" length="5"/>
    <parkingArea id="pa-274935784#0" lane="-274935784#0_0" roadsideCapacity="44" length="5"/>
    <parkingArea id="pa-274935784#1" lane="-274935784#1_0" roadsideCapacity="20" length="5"/>
    <parkingArea id="pa-274935784#2" lane="-274935784#2_0" roadsideCapacity="14" length="5"/>
    <parkingArea id="pa-279451567#0" lane="-279451567#0_0" roadsideCapacity="13" length="5"/>
    <parkingArea id="pa-279451567#1" lane="-279451567#1_0" roadsideCapacity="18" length="5"/>
    <parkingArea id="pa-279451568#0" lane="-279451568#0_0" roadsideCapacity="8" length="5"/>
    <parkingArea id="pa-279451568#1" lane="-279451568#1_0" roadsideCapacity="15" length="5"/>
    <parkingArea id="pa-314838840#0" lane="-314838840#0_0" roadsideCapacity="7" length="5"/>
    <parkingArea id="pa-314838840#1" lane="-314838840#1_0" roadsideCapacity="7" length="5"/>
    <parkingArea id="pa-314838840#2" lane="-314838840#2_0" roadsideCapacity="8" length="5"/>
    <parkingArea id="pa-314838840#3" lane="-314838840#3_0" roadsideCapacity="8" length="5"/>
    <parkingArea id="pa-314838840#4" lane="-314838840#4_0" roadsideCapacity="18" length="5"/>
    <parkingArea id="pa-314838841#0" lane="-314838841#0_0" roadsideCapacity="9" length="5"/>
    <parkingArea id="pa-314840836#0" lane="-314840836#0_0" roadsideCapacity="8" length="5"/>
    <parkingArea id="pa-314840836#1" lane="-314840836#1_0" roadsideCapacity="10" length="5"/>
    <parkingArea id="pa-314840836#2" lane="-314840836#2_0" roadsideCapacity="10" length="5"/>
    <parkingArea id="pa-314840849#0" lane="-314840849#0_0" roadsideCapacity="16" length="5"/>
    <parkingArea id="pa-314840849#1" lane="-314840849#1_0" roadsideCapacity="12" length="5"/>
    <parkingArea id="pa-314840849#2" lane="-314840849#2_0" roadsideCapacity="40" length="5"/>
    <parkingArea id="pa-314840852" lane="-314840852_0" roadsideCapacity="35" length="5"/>
    <parkingArea id="pa-314845926#0" lane="-314845926#0_0" roadsideCapacity="31" length="5"/>
    <parkingArea id="pa-314845926#1" lane="-314845926#1_0" roadsideCapacity="16" length="5"/>
    <parkingArea id="pa-314845926#2" lane="-314845926#2_0" roadsideCapacity="11" length="5"/>
    <parkingArea id="pa-314845926#3" lane="-314845926#3_0" roadsideCapacity="2" length="5"/>
    <parkingArea id="pa-314845926#5" lane="-314845926#5_0" roadsideCapacity="14" length="5"/>
    <parkingArea id="pa-314845926#6" lane="-314845926#6_0" roadsideCapacity="1" length="5"/>
    <parkingArea id="pa-315026291#1" lane="-315026291#1_0" roadsideCapacity="12" length="5"/>
    <parkingArea id="pa-315026291#2" lane="-315026291#2_0" roadsideCapacity="9" length="5"/>
    <parkingArea id="pa-315026291#3" lane="-315026291#3_0" roadsideCapacity="10" length="5"/>
    <parkingArea id="pa-315026291#4" lane="-315026291#4_0" roadsideCapacity="10" length="5"/>
    <parkingArea id="pa-315026291#5" lane="-315026291#5_0" roadsideCapacity="10" length="5"/>
    <parkingArea id="pa-315026291#6" lane="-315026291#6_0" roadsideCapacity="9" length="5"/>
    <parkingArea id="pa-315026291#8" lane="-315026291#8_0" roadsideCapacity="9" length="5"/>
    <parkingArea id="pa-315026291#9" lane="-315026291#9_0" roadsideCapacity="8" length="5"/>
    <parkingArea id="pa-315075412#0" lane="-315075412#0_0" roadsideCapacity="4" length="5"/>
    <parkingArea id="pa-315075412#1" lane="-315075412#1_0" roadsideCapacity="8" length="5"/>
    <parkingArea id="pa-315075412#2" lane="-315075412#2_0" roadsideCapacity="12" length="5"/>
    <parkingArea id="pa-315392356#0" lane="-315392356#0_0" roadsideCapacity="3" length="5"/>
    <parkingArea id="pa-315392356#1" lane="-315392356#1_0" roadsideCapacity="7" length="5"/>
    <parkingArea id="pa-315392356#2" lane="-315392356#2_0" roadsideCapacity="5" length="5"/>
    <parkingArea id="pa-315392356#3" lane="-315392356#3_0" roadsideCapacity="13" length="5"/>
    <parkingArea id="pa-315392356#4" lane="-315392356#4_0" roadsideCapacity="16" length="5"/>
    <parkingArea id="pa-321740725" lane="-321740725_0" roadsideCapacity="2" length="5"/>
    <parkingArea id="pa-321740727#0" lane="-321740727#0_0" roadsideCapacity="4" length="5"/>
    <parkingArea id="pa-321740727#1" lane="-321740727#1_0" roadsideCapacity="14" length="5"/>
    <parkingArea id="pa-321740727#2" lane="-321740727#2_0" roadsideCapacity="2" length="5"/>
    <parkingArea id="pa-362464956" lane="-362464956_0" roadsideCapacity="21" length="5"/>
    <parkingArea id="pa-379730731" lane="-379730731_0" roadsideCapacity="19" length="5"/>
    <parkingArea id="pa-379742187" lane="-379742187_0" roadsideCapacity="14" length="5"/>
    <parkingArea id="pa-379742188" lane="-379742188_0" roadsideCapacity="20" length="5"/>
    <parkingArea id="pa-379742189#0" lane="-379742189#0_0" roadsideCapacity="12" length="5"/>
    <parkingArea id="pa-379742189#1" lane="-379742189#1_0" roadsideCapacity="3" length="5"/>
    <parkingArea id="pa-380515955" lane="-380515955_0" roadsideCapacity="10" length="5"/>
    <parkingArea id="pa-392532447#0" lane="-392532447#0_0" roadsideCapacity="5" length="5"/>
    <parkingArea id="pa-40801952#0" lane="-40801952#0_0" roadsideCapacity="10" length="5"/>
    <parkingArea id="pa-40801952#1" lane="-40801952#1_0" roadsideCapacity="8" length="5"/>
    <parkingArea id="pa-40801952#2" lane="-40801952#2_0" roadsideCapacity="9" length="5"/>
    <parkingArea id="pa-40801952#3" lane="-40801952#3_0" roadsideCapacity="9" length="5"/>
    <parkingArea id="pa-40801952#4" lane="-40801952#4_0" roadsideCapacity="34" length="5"/>
    <parkingArea id="pa-482053702" lane="-482053702_0" roadsideCapacity="2" length="5"/>
    <parkingArea id="pa-488952645#0" lane="-488952645#0_0" roadsideCapacity="15" length="5"/>
    <parkingArea id="pa-488952645#1" lane="-488952645#1_0" roadsideCapacity="9" length="5"/>
    <parkingArea id="pa-488952645#2" lane="-488952645#2_0" roadsideCapacity="12" length="5"/>
    <parkingArea id="pa-488952645#3" lane="-488952645#3_0" roadsideCapacity="10" length="5"/>
    <parkingArea id="pa-489067620#1" lane="-489067620#1_0" roadsideCapacity="1" length="5"/>
    <parkingArea id="pa-489067623#0" lane="-489067623#0_0" roadsideCapacity="2" length="5"/>
    <parkingArea id="pa-489067655#0" lane="-489067655#0_0" roadsideCapacity="10" length="5"/>
    <parkingArea id="pa-489067655#1" lane="-489067655#1_0" roadsideCapacity="9" length="5"/>
    <parkingArea id="pa-489067655#2" lane="-489067655#2_0" roadsideCapacity="11" length="5"/>
    <parkingArea id="pa-489067655#3" lane="-489067655#3_0" roadsideCapacity="14" length="5"/>
    <parkingArea id="pa-489067655#4" lane="-489067655#4_0" roadsideCapacity="7" length="5"/>
    <parkingArea id="pa-489067659#0" lane="-489067659#0_0" roadsideCapacity="2" length="5"/>
    <parkingArea id="pa-489067661#1" lane="-489067661#1_0" roadsideCapacity="10" length="5"/>
    <parkingArea id="pa-489067661#2" lane="-489067661#2_0" roadsideCapacity="2" length="5"/>
    <parkingArea id="pa-533840744" lane="-533840744_0" roadsideCapacity="25" length="5"/>
    <parkingArea id="pa-533840745" lane="-533840745_0" roadsideCapacity="10" length="5"/>
    <parkingArea id="pa-533840746" lane="-533840746_0" roadsideCapacity="11" length="5"/>
    <parkingArea id="pa-533840747" lane="-533840747_0" roadsideCapacity="8" length="5"/>
    <parkingArea id="pa-533840749#0" lane="-533840749#0_0" roadsideCapacity="2" length="5"/>
    <parkingArea id="pa-533840749#1" lane="-533840749#1_0" roadsideCapacity="13" length="5"/>
    <parkingArea id="pa-533840751#0" lane="-533840751#0_0" roadsideCapacity="6" length="5"/>
    <parkingArea id="pa-533840751#1" lane="-533840751#1_0" roadsideCapacity="1" length="5"/>
    <parkingArea id="pa-533840752" lane="-533840752_0" roadsideCapacity="11" length="5"/>
    <parkingArea id="pa-533934723#0" lane="-533934723#0_0" roadsideCapacity="12" length="5"/>
    <parkingArea id="pa-533934723#1" lane="-533934723#1_0" roadsideCapacity="4" length="5"/>
    <parkingArea id="pa-533934724#0" lane="-533934724#0_0" roadsideCapacity="4" length="5"/>
    <parkingArea id="pa-533934724#1" lane="-533934724#1_0" roadsideCapacity="3" length="5"/>
    <parkingArea id="pa-533934725#0" lane="-533934725#0_0" roadsideCapacity="2" length="5"/>
    <parkingArea id="pa-533934725#1" lane="-533934725#1_0" roadsideCapacity="3" length="5"/>
    <parkingArea id="pa-533934725#2" lane="-533934725#2_0" roadsideCapacity="3" length="5"/>
    <parkingArea id="pa-533934742#0" lane="-533934742#0_0" roadsideCapacity="10" length="5"/>
    <parkingArea id="pa-533934742#1" lane="-533934742#1_0" roadsideCapacity="9" length="5"/>
    <parkingArea id="pa-533934743" lane="-533934743_0" roadsideCapacity="11" length="5"/>
    <parkingArea id="pa-533934744" lane="-533934744_0" roadsideCapacity="19" length="5"/>
    <parkingArea id="pa-533934745#0" lane="-533934745#0_0" roadsideCapacity="7" length="5"/>
    <parkingArea id="pa-533934745#1" lane="-533934745#1_0" roadsideCapacity="22" length="5"/>
    <parkingArea id="pa-533946202#0" lane="-533946202#0_0" roadsideCapacity="2" length="5"/>
    <parkingArea id="pa-533946202#1" lane="-533946202#1_0" roadsideCapacity="11" length="5"/>
    <parkingArea id="pa-533946219" lane="-533946219_0" roadsideCapacity="6" length="5"/>
    <parkingArea id="pa-533946222" lane="-533946222_0" roadsideCapacity="7" length="5"/>
    <parkingArea id="pa-657082663#0" lane="-657082663#0_0" roadsideCapacity="17" length="5"/>
    <parkingArea id="pa-657082663#1" lane="-657082663#1_0" roadsideCapacity="13" length="5"/>
    <parkingArea id="pa-659085756" lane="-659085756_0" roadsideCapacity="20" length="5"/>
    <parkingArea id="pa-659085758" lane="-659085758_0" roadsideCapacity="19" length="5"/>
    <parkingArea id="pa-751327640" lane="-751327640_0" roadsideCapacity="10" length="5"/>
    <parkingArea id="pa-751349707" lane="-751349707_0" roadsideCapacity="4" length="5"/>
    <parkingArea id="pa-753112553" lane="-753112553_0" roadsideCapacity="15" length="5"/>
    <parkingArea id="pa-753614891#0" lane="-753614891#0_0" roadsideCapacity="6" length="5"/>
    <parkingArea id="pa-753614891#1" lane="-753614891#1_0" roadsideCapacity="10" length="5"/>
    <parkingArea id="pa-754628019#0" lane="-754628019#0_0" roadsideCapacity="1" length="5"/>
    <parkingArea id="pa-754628245#0" lane="-754628245#0_0" roadsideCapacity="8" length="5"/>
    <parkingArea id="pa-754628245#1" lane="-754628245#1_0" roadsideCapacity="13" length="5"/>
    <parkingArea id="pa-754635698#0" lane="-754635698#0_0" roadsideCapacity="9" length="5"/>
    <parkingArea id="pa-754635698#1" lane="-754635698#1_0" roadsideCapacity="9" length="5"/>
    <parkingArea id="pa-876470020" lane="-876470020_0" roadsideCapacity="3" length="5"/>
    <parkingArea id="pa-881894775#0" lane="-881894775#0_0" roadsideCapacity="26" length="5"/>
    <parkingArea id="pa-882163041" lane="-882163041_0" roadsideCapacity="23" length="5"/>
    <parkingArea id="pa-882171604#0" lane="-882171604#0_0" roadsideCapacity="12" length="5"/>
    <parkingArea id="pa-882171604#1" lane="-882171604#1_0" roadsideCapacity="15" length="5"/>
    <parkingArea id="pa-887832142" lane="-887832142_0" roadsideCapacity="14" length="5"/>
    <parkingArea id="pa-893736291#0" lane="-893736291#0_0" roadsideCapacity="9" length="5"/>
    <parkingArea id="pa-893736291#1" lane="-893736291#1_0" roadsideCapacity="12" length="5"/>
    <parkingArea id="pa-893736291#2" lane="-893736291#2_0" roadsideCapacity="1" length="5"/>
    <parkingArea id="pa-894828586" lane="-894828586_0" roadsideCapacity="12" length="5"/>
    <parkingArea id="pa-895398088#0" lane="-895398088#0_0" roadsideCapacity="2" length="5"/>
    <parkingArea id="pa-895398088#1" lane="-895398088#1_0" roadsideCapacity="9" length="5"/>
    <parkingArea id="pa-895398088#2" lane="-895398088#2_0" roadsideCapacity="4" length="5"/>
    <parkingArea id="pa-896014636#0" lane="-896014636#0_0" roadsideCapacity="11" length="5"/>
    <parkingArea id="pa-896014636#1" lane="-896014636#1_0" roadsideCapacity="11" length="5"/>
    <parkingArea id="pa-896014636#2" lane="-896014636#2_0" roadsideCapacity="10" length="5"/>
    <parkingArea id="pa-897956734" lane="-897956734_0" roadsideCapacity="6" length="5"/>
    <parkingArea id="pa-899168733#0" lane="-899168733#0_0" roadsideCapacity="10" length="5"/>
    <parkingArea id="pa-899168733#1" lane="-899168733#1_0" roadsideCapacity="1" length="5"/>
    <parkingArea id="pa-900222353#0" lane="-900222353#0_0" roadsideCapacity="9" length="5"/>
    <parkingArea id="pa-900222353#1" lane="-900222353#1_0" roadsideCapacity="13" length="5"/>
    <parkingArea id="pa-900222353#2" lane="-900222353#2_0" roadsideCapacity="5" length="5"/>
    <parkingArea id="pa-900222353#3" lane="-900222353#3_0" roadsideCapacity="3" length="5"/>
    <parkingArea id="pa-900222353#4" lane="-900222353#4_0" roadsideCapacity="12" length="5"/>
    <parkingArea id="pa-900222353#5" lane="-900222353#5_0" roadsideCapacity="14" length="5"/>