<?xml version='1.0' encoding='utf-8'?>
<routes xmlns:xsi="http://www.w3.org/2001/XMLSchema-instance" xsi:noNamespaceSchemaLocation="http://sumo.dlr.de/xsd/routes_file.xsd">


<vType id="aggressive" carFollowModel="EIDM" laneChangeModel="SL2015" maxSpeed="19.444444444444443" accel="3.0" decel="5.0" speedFactor="1.2" emergencyDecel="10.0" vClass="passenger">
	<param key="device.rerouting.probability" value="1.0" />
	<param key="device.rerouting.adaptation-steps" value="18" />
	<param key="device.rerouting.adaptation-interval" value="10" />
</vType>
<vType id="normal" carFollowModel="EIDM" laneChangeModel="SL2015" maxSpeed="13.88888888888889" accel="2.5" decel="4.5" speedFactor="1.0" emergencyDecel="9.0" vClass="passenger">
	<param key="device.rerouting.probability" value="1.0" />
	<param key="device.rerouting.adaptation-steps" value="18" />
	<param key="device.rerouting.adaptation-interval" value="10" />
</vType>
<trip id="veh_carla2_normal" type="normal" depart="0" from="25.0.00" to="25.0.00">
	<stop edge="-43.0.00" duration="10" />
	<stop edge="25.0.00" duration="10" />
	<stop edge="-7.0.00" duration="10" />
	<stop edge="25.0.00" duration="40" />
	<stop edge="-52.0.00" duration="10" />
	<stop edge="-30.0.00" duration="10" />
	<stop edge="-7.0.00" duration="10" />
	<stop edge="-43.0.00" duration="10" />
	<stop edge="51.0.00" duration="10" />
	<stop edge="35.0.00" duration="10" />
	<stop edge="-44.0.00" duration="10" />
	<stop edge="-30.0.00" duration="10" />
</trip>
</routes>