<?xml version="1.0" encoding="UTF-8"?>
<additional>
<poi id="home" x="306.0381248474121" y="230.31962997436523" color="0,255,0" layer="30"/>
<poi id="work" x="306.0381248474121" y="230.31962997436523" color="0,255,0" layer="30"/>
<poi id="school" x="175.5333984375" y="295.3574984741211" color="0,255,0" layer="30"/>
<poi id="gym" x="82.74409179687501" y="145.03018981933593" color="0,255,0" layer="30"/>
<poi id="bar" x="140.13303833007814" y="81.8667529296875" color="0,255,0" layer="30"/>
<poi id="theater" x="328.9825866699219" y="12.46317321777343" color="0,255,0" layer="30"/>
<poi id="cafe" x="314.62861328125" y="104.77784759521484" color="0,255,0" layer="30"/>
<poi id="university" x="149.8197982788086" y="173.02686149597167" color="0,255,0" layer="30"/>
<poi id="restaurant" x="86.22016601562501" y="232.09149772644042" color="0,255,0" layer="30"/>
</additional>
