<?xml version='1.0' encoding='utf-8'?>
<routes xmlns:xsi="http://www.w3.org/2001/XMLSchema-instance" xsi:noNamespaceSchemaLocation="http://sumo.dlr.de/xsd/routes_file.xsd">


<vType id="v_aggressive4" carFollowModel="EIDM" laneChangeModel="SL2015" minGap="1.23" accel="5.13" decel="4.56" emergencyDecel="9.11" startupDelay="1.3" tau="1.66" maxSpeed="94.55" speedFactor="0.83" ccoolness="0.88" sigmaleader="0.44" sigmagap="0.48" sigmaerror="0.33" jerkmax="22.23" epsilonacc="2.47" taccmax="1.15" lcStrategic="0.58" lcCooperative="0.34" lcSpeedGain="0.74" lcKeepRight="0.31" lcOvertakeRight="0.51" lcSpeedGainLookahead="2.12" lcOvertakeDeltaSpeedFactor="0.73" lcPushy="0.71" lcAssertive="3.05" lcImpatience="0.69" lcTimeToImpatience="3.42" lcLaneDiscipline="0.4" lcSigma="0.4" lcAccelLat="26.41" probability="0.11308277753524058">
		<param key="device.rerouting.probability" value="1.0" />
		<param key="device.rerouting.adaptation-steps" value="18" />
		<param key="device.rerouting.adaptation-interval" value="10" />
	</vType>
<vType id="v_aggressive3" carFollowModel="EIDM" laneChangeModel="SL2015" minGap="1.06" accel="5.4" decel="5.18" emergencyDecel="9.84" startupDelay="0.79" tau="2.15" maxSpeed="80.88" speedFactor="0.95" ccoolness="0.83" sigmaleader="0.37" sigmagap="0.47" sigmaerror="0.45" jerkmax="26.36" epsilonacc="2.29" taccmax="1.28" lcStrategic="0.81" lcCooperative="0.26" lcSpeedGain="0.55" lcKeepRight="0.45" lcOvertakeRight="0.59" lcSpeedGainLookahead="1.65" lcOvertakeDeltaSpeedFactor="0.5" lcPushy="0.6" lcAssertive="2.51" lcImpatience="0.76" lcTimeToImpatience="4.48" lcLaneDiscipline="0.28" lcSigma="0.42" lcAccelLat="23.49" probability="0.20977490112820688">
		<param key="device.rerouting.probability" value="1.0" />
		<param key="device.rerouting.adaptation-steps" value="18" />
		<param key="device.rerouting.adaptation-interval" value="10" />
	</vType>
	<vType id="v_aggressive2" carFollowModel="EIDM" laneChangeModel="SL2015" minGap="1.24" accel="4.73" decel="4.21" emergencyDecel="7.64" startupDelay="1.28" tau="2.53" maxSpeed="92.93" speedFactor="0.92" ccoolness="0.87" sigmaleader="0.43" sigmagap="0.4" sigmaerror="0.42" jerkmax="25.43" epsilonacc="2.6" taccmax="0.99" lcStrategic="0.61" lcCooperative="0.3" lcSpeedGain="0.55" lcKeepRight="0.4" lcOvertakeRight="0.62" lcSpeedGainLookahead="1.8" lcOvertakeDeltaSpeedFactor="0.67" lcPushy="0.63" lcAssertive="2.78" lcImpatience="0.62" lcTimeToImpatience="3.79" lcLaneDiscipline="0.34" lcSigma="0.42" lcAccelLat="23.3" probability="0.31256804192909354">
		<param key="device.rerouting.probability" value="1.0" />
		<param key="device.rerouting.adaptation-steps" value="18" />
		<param key="device.rerouting.adaptation-interval" value="10" />
	</vType>
	<vType id="v_aggressive1" carFollowModel="EIDM" laneChangeModel="SL2015" minGap="1.35" accel="5.57" decel="4.57" emergencyDecel="8.51" startupDelay="1.26" tau="1.46" maxSpeed="76.72" speedFactor="0.91" ccoolness="0.81" sigmaleader="0.27" sigmagap="0.43" sigmaerror="0.31" jerkmax="23.94" epsilonacc="2.54" taccmax="0.92" lcStrategic="0.63" lcCooperative="0.2" lcSpeedGain="0.53" lcKeepRight="0.52" lcOvertakeRight="0.64" lcSpeedGainLookahead="1.53" lcOvertakeDeltaSpeedFactor="0.72" lcPushy="0.59" lcAssertive="2.29" lcImpatience="0.67" lcTimeToImpatience="3.66" lcLaneDiscipline="0.29" lcSigma="0.37" lcAccelLat="24.03" probability="0.1337484903008192">
		<param key="device.rerouting.probability" value="1.0" />
		<param key="device.rerouting.adaptation-steps" value="18" />
		<param key="device.rerouting.adaptation-interval" value="10" />
	</vType>
	<vType id="v_aggressive0" carFollowModel="EIDM" laneChangeModel="SL2015" minGap="1.32" accel="5.63" decel="5.64" emergencyDecel="8.83" startupDelay="1.11" tau="1.35" maxSpeed="83.35" speedFactor="1.02" ccoolness="0.79" sigmaleader="0.39" sigmagap="0.46" sigmaerror="0.47" jerkmax="25.48" epsilonacc="2.52" taccmax="1.0" lcStrategic="0.55" lcCooperative="0.29" lcSpeedGain="0.77" lcKeepRight="0.35" lcOvertakeRight="0.64" lcSpeedGainLookahead="1.07" lcOvertakeDeltaSpeedFactor="0.64" lcPushy="0.64" lcAssertive="2.3" lcImpatience="0.65" lcTimeToImpatience="1.79" lcLaneDiscipline="0.2" lcSigma="0.33" lcAccelLat="24.85" probability="0.23082578910663987">
		<param key="device.rerouting.probability" value="1.0" />
		<param key="device.rerouting.adaptation-steps" value="18" />
		<param key="device.rerouting.adaptation-interval" value="10" />
	</vType>
	<vType id="v_normal4" carFollowModel="EIDM" laneChangeModel="SL2015" minGap="1.19" accel="2.94" decel="2.96" emergencyDecel="5.5" startupDelay="1.19" tau="1.94" maxSpeed="47.1" speedFactor="0.82" ccoolness="0.6" sigmaleader="0.26" sigmagap="0.23" sigmaerror="0.24" jerkmax="18.15" epsilonacc="0.97" taccmax="1.45" lcStrategic="0.31" lcCooperative="0.75" lcSpeedGain="0.35" lcKeepRight="0.77" lcOvertakeRight="0.13" lcSpeedGainLookahead="2.03" lcOvertakeDeltaSpeedFactor="0.4" lcPushy="0.2" lcAssertive="1.1" lcImpatience="0.32" lcTimeToImpatience="12.35" lcLaneDiscipline="0.91" lcSigma="0.19" lcAccelLat="18.01" probability="0.14950016337493213">
		<param key="device.rerouting.probability" value="1.0" />
		<param key="device.rerouting.adaptation-steps" value="18" />
		<param key="device.rerouting.adaptation-interval" value="10" />
	</vType>
<vType id="v_normal3" carFollowModel="EIDM" laneChangeModel="SL2015" minGap="1.73" accel="1.88" decel="3.36" emergencyDecel="6.69" startupDelay="1.64" tau="2.79" maxSpeed="52.91" speedFactor="0.77" ccoolness="0.49" sigmaleader="0.18" sigmagap="0.19" sigmaerror="0.22" jerkmax="19.77" epsilonacc="0.58" taccmax="1.95" lcStrategic="0.3" lcCooperative="0.69" lcSpeedGain="0.41" lcKeepRight="0.92" lcOvertakeRight="0.13" lcSpeedGainLookahead="2.55" lcOvertakeDeltaSpeedFactor="0.22" lcPushy="0.2" lcAssertive="0.98" lcImpatience="0.36" lcTimeToImpatience="9.87" lcLaneDiscipline="0.79" lcSigma="0.16" lcAccelLat="12.13" probability="0.04535001813962139">
		<param key="device.rerouting.probability" value="1.0" />
		<param key="device.rerouting.adaptation-steps" value="18" />
		<param key="device.rerouting.adaptation-interval" value="10" />
	</vType>
	<vType id="v_normal2" carFollowModel="EIDM" laneChangeModel="SL2015" minGap="1.86" accel="2.52" decel="3.03" emergencyDecel="6.71" startupDelay="1.02" tau="3.09" maxSpeed="58.27" speedFactor="0.84" ccoolness="0.65" sigmaleader="0.26" sigmagap="0.29" sigmaerror="0.16" jerkmax="19.41" epsilonacc="0.78" taccmax="1.53" lcStrategic="0.5" lcCooperative="0.6" lcSpeedGain="0.17" lcKeepRight="0.78" lcOvertakeRight="0.19" lcSpeedGainLookahead="3.51" lcOvertakeDeltaSpeedFactor="0.38" lcPushy="0.16" lcAssertive="1.38" lcImpatience="0.42" lcTimeToImpatience="13.61" lcLaneDiscipline="0.68" lcSigma="0.14" lcAccelLat="11.23" probability="0.07781627170508364">
		<param key="device.rerouting.probability" value="1.0" />
		<param key="device.rerouting.adaptation-steps" value="18" />
		<param key="device.rerouting.adaptation-interval" value="10" />
	</vType>
	<vType id="v_normal1" carFollowModel="EIDM" laneChangeModel="SL2015" minGap="2.35" accel="3.09" decel="2.05" emergencyDecel="6.38" startupDelay="1.5" tau="3.5" maxSpeed="57.63" speedFactor="0.86" ccoolness="0.52" sigmaleader="0.16" sigmagap="0.2" sigmaerror="0.17" jerkmax="20.6" epsilonacc="1.02" taccmax="1.79" lcStrategic="0.46" lcCooperative="0.59" lcSpeedGain="0.33" lcKeepRight="0.72" lcOvertakeRight="0.21" lcSpeedGainLookahead="3.13" lcOvertakeDeltaSpeedFactor="0.37" lcPushy="0.19" lcAssertive="1.73" lcImpatience="0.35" lcTimeToImpatience="18.25" lcLaneDiscipline="0.75" lcSigma="0.23" lcAccelLat="18.25" probability="0.3754603873080742">
		<param key="device.rerouting.probability" value="1.0" />
		<param key="device.rerouting.adaptation-steps" value="18" />
		<param key="device.rerouting.adaptation-interval" value="10" />
	</vType>
	<vType id="v_normal0" carFollowModel="EIDM" laneChangeModel="SL2015" minGap="2.14" accel="3.69" decel="3.08" emergencyDecel="7.53" startupDelay="1.89" tau="3.21" maxSpeed="41.12" speedFactor="0.87" ccoolness="0.41" sigmaleader="0.23" sigmagap="0.17" sigmaerror="0.25" jerkmax="15.25" epsilonacc="1.25" taccmax="1.61" lcStrategic="0.38" lcCooperative="0.61" lcSpeedGain="0.32" lcKeepRight="0.69" lcOvertakeRight="0.19" lcSpeedGainLookahead="3.55" lcOvertakeDeltaSpeedFactor="0.38" lcPushy="0.24" lcAssertive="1.64" lcImpatience="0.32" lcTimeToImpatience="11.94" lcLaneDiscipline="0.78" lcSigma="0.23" lcAccelLat="14.72" probability="0.35187315947228864">
		<param key="device.rerouting.probability" value="1.0" />
		<param key="device.rerouting.adaptation-steps" value="18" />
		<param key="device.rerouting.adaptation-interval" value="10" />
	</vType>
	<trip id="veh0" type="v_aggressive4" depart="0" from="25.0.00" to="25.0.00">
	<stop edge="-7.0.00" duration="10" />
	<stop edge="25.0.00" duration="20" />
	<stop edge="-43.0.00" duration="10" />
	<stop edge="25.0.00" duration="10" />
	<stop edge="-52.0.00" duration="10" />
	<stop edge="-43.0.00" duration="10" />
	<stop edge="-30.0.00" duration="10" />
	<stop edge="35.0.00" duration="10" />
	<stop edge="25.0.00" duration="10" />
	<stop edge="-7.0.00" duration="10" />
	<stop edge="51.0.00" duration="10" />
	<stop edge="25.0.00" duration="10" />
	<stop edge="-43.0.00" duration="10" />
</trip>
</routes>