<?xml version="1.0" encoding="UTF-8"?>

<!-- generated on 2025-05-14 15:45:07.100563 by generateParkingAreas.py UNKNOWN
<configuration>
    <net-file value="town05/osm.net.xml"/>
    <output-file value="town05/park.add.xml"/>
    <verbose value="True"/>
</configuration>
-->

<additional xmlns:xsi="http://www.w3.org/2001/XMLSchema-instance" xsi:noNamespaceSchemaLocation="http://sumo.dlr.de/xsd/additional_file.xsd">
</additional>
