<?xml version='1.0' encoding='utf-8'?>
<routes xmlns:xsi="http://www.w3.org/2001/XMLSchema-instance" xsi:noNamespaceSchemaLocation="http://sumo.dlr.de/xsd/routes_file.xsd">
    <vType id="v_aggressive4" carFollowModel="EIDM" laneChangeModel="SL2015" minGap="1.51" accel="2.53" decel="5.0" emergencyDecel="6.36" startupDelay="1.15" tau="2.35" maxSpeed="38.58" speedFactor="0.71" ccoolness="0.91" sigmaleader="0.48" sigmagap="0.61" sigmaerror="0.12" jerkmax="4.16" epsilonacc="2.15" taccmax="0.88" lcStrategic="2.1" lcCooperative="0.37" lcSpeedGain="2.13" lcKeepRight="1.09" lcOvertakeRight="0.72" lcSpeedGainLookahead="3.19" lcOvertakeDeltaSpeedFactor="0.71" lcPushy="0.59" lcAssertive="4.1" lcImpatience="0.87" lcTimeToImpatience="7.73" lcLaneDiscipline="0.99" lcSigma="0.11" lcAccelLat="2.26" probability="0.4298114217856799">
		<param key="device.rerouting.probability" value="1.0" />
		<param key="device.rerouting.adaptation-steps" value="18" />
		<param key="device.rerouting.adaptation-interval" value="10" />
	</vType>
<vType id="v_aggressive3" carFollowModel="EIDM" laneChangeModel="SL2015" minGap="1.17" accel="4.31" decel="3.75" emergencyDecel="7.65" startupDelay="0.82" tau="2.2" maxSpeed="31.98" speedFactor="0.72" ccoolness="0.76" sigmaleader="0.56" sigmagap="0.59" sigmaerror="0.1" jerkmax="4.74" epsilonacc="1.43" taccmax="0.62" lcStrategic="2.53" lcCooperative="0.35" lcSpeedGain="2.41" lcKeepRight="0.84" lcOvertakeRight="0.71" lcSpeedGainLookahead="3.72" lcOvertakeDeltaSpeedFactor="0.67" lcPushy="0.66" lcAssertive="5.31" lcImpatience="0.86" lcTimeToImpatience="5.38" lcLaneDiscipline="1.13" lcSigma="0.17" lcAccelLat="2.47" probability="0.044156043658749096">
		<param key="device.rerouting.probability" value="1.0" />
		<param key="device.rerouting.adaptation-steps" value="18" />
		<param key="device.rerouting.adaptation-interval" value="10" />
	</vType>
	<vType id="v_aggressive2" carFollowModel="EIDM" laneChangeModel="SL2015" minGap="1.53" accel="3.24" decel="4.84" emergencyDecel="6.94" startupDelay="0.93" tau="2.25" maxSpeed="37.79" speedFactor="0.62" ccoolness="0.84" sigmaleader="0.39" sigmagap="0.66" sigmaerror="0.13" jerkmax="4.74" epsilonacc="2.0" taccmax="1.41" lcStrategic="2.01" lcCooperative="0.4" lcSpeedGain="2.39" lcKeepRight="0.95" lcOvertakeRight="0.62" lcSpeedGainLookahead="3.58" lcOvertakeDeltaSpeedFactor="0.69" lcPushy="0.66" lcAssertive="4.65" lcImpatience="0.9" lcTimeToImpatience="8.45" lcLaneDiscipline="0.77" lcSigma="0.15" lcAccelLat="2.76" probability="0.2834940067717206">
		<param key="device.rerouting.probability" value="1.0" />
		<param key="device.rerouting.adaptation-steps" value="18" />
		<param key="device.rerouting.adaptation-interval" value="10" />
	</vType>
	<vType id="v_aggressive1" carFollowModel="EIDM" laneChangeModel="SL2015" minGap="1.34" accel="3.27" decel="4.2" emergencyDecel="8.14" startupDelay="1.26" tau="1.83" maxSpeed="34.73" speedFactor="0.77" ccoolness="0.82" sigmaleader="0.41" sigmagap="0.64" sigmaerror="0.13" jerkmax="5.79" epsilonacc="1.58" taccmax="0.54" lcStrategic="2.49" lcCooperative="0.27" lcSpeedGain="2.68" lcKeepRight="0.96" lcOvertakeRight="0.78" lcSpeedGainLookahead="3.63" lcOvertakeDeltaSpeedFactor="0.65" lcPushy="0.68" lcAssertive="2.89" lcImpatience="0.83" lcTimeToImpatience="6.53" lcLaneDiscipline="0.84" lcSigma="0.15" lcAccelLat="2.12" probability="0.07854582235420757">
		<param key="device.rerouting.probability" value="1.0" />
		<param key="device.rerouting.adaptation-steps" value="18" />
		<param key="device.rerouting.adaptation-interval" value="10" />
	</vType>
	<vType id="v_aggressive0" carFollowModel="EIDM" laneChangeModel="SL2015" minGap="1.58" accel="3.3" decel="4.18" emergencyDecel="6.28" startupDelay="0.91" tau="1.82" maxSpeed="39.83" speedFactor="0.76" ccoolness="0.76" sigmaleader="0.47" sigmagap="0.67" sigmaerror="0.12" jerkmax="5.67" epsilonacc="1.88" taccmax="0.84" lcStrategic="2.95" lcCooperative="0.38" lcSpeedGain="2.31" lcKeepRight="1.34" lcOvertakeRight="0.58" lcSpeedGainLookahead="2.91" lcOvertakeDeltaSpeedFactor="0.66" lcPushy="0.68" lcAssertive="3.94" lcImpatience="0.87" lcTimeToImpatience="7.78" lcLaneDiscipline="0.94" lcSigma="0.09" lcAccelLat="1.91" probability="0.16399270542964292">
		<param key="device.rerouting.probability" value="1.0" />
		<param key="device.rerouting.adaptation-steps" value="18" />
		<param key="device.rerouting.adaptation-interval" value="10" />
	</vType>
	<vType id="v_normal4" carFollowModel="EIDM" laneChangeModel="SL2015" minGap="1.5" accel="1.57" decel="2.52" emergencyDecel="6.0" startupDelay="1.56" tau="2.68" maxSpeed="21.24" speedFactor="0.64" ccoolness="0.36" sigmaleader="0.13" sigmagap="0.24" sigmaerror="0.08" jerkmax="3.41" epsilonacc="0.84" taccmax="1.23" lcStrategic="0.76" lcCooperative="0.53" lcSpeedGain="0.82" lcKeepRight="1.66" lcOvertakeRight="0.19" lcSpeedGainLookahead="1.5" lcOvertakeDeltaSpeedFactor="0.35" lcPushy="0.21" lcAssertive="1.18" lcImpatience="0.01" lcTimeToImpatience="13.12" lcLaneDiscipline="0.93" lcSigma="0.08" lcAccelLat="0.72" probability="0.13253627258299014">
		<param key="device.rerouting.probability" value="1.0" />
		<param key="device.rerouting.adaptation-steps" value="18" />
		<param key="device.rerouting.adaptation-interval" value="10" />
	</vType>
<vType id="v_normal3" carFollowModel="EIDM" laneChangeModel="SL2015" minGap="1.93" accel="2.3" decel="2.29" emergencyDecel="4.93" startupDelay="1.58" tau="3.57" maxSpeed="19.37" speedFactor="0.57" ccoolness="0.39" sigmaleader="0.25" sigmagap="0.32" sigmaerror="0.06" jerkmax="3.16" epsilonacc="0.75" taccmax="1.65" lcStrategic="0.77" lcCooperative="0.58" lcSpeedGain="0.51" lcKeepRight="1.73" lcOvertakeRight="0.19" lcSpeedGainLookahead="1.6" lcOvertakeDeltaSpeedFactor="0.4" lcPushy="0.17" lcAssertive="1.62" lcImpatience="0.14" lcTimeToImpatience="17.06" lcLaneDiscipline="1.8" lcSigma="0.08" lcAccelLat="0.67" probability="0.12823018769317662">
		<param key="device.rerouting.probability" value="1.0" />
		<param key="device.rerouting.adaptation-steps" value="18" />
		<param key="device.rerouting.adaptation-interval" value="10" />
	</vType>
	<vType id="v_normal2" carFollowModel="EIDM" laneChangeModel="SL2015" minGap="2.43" accel="1.48" decel="2.33" emergencyDecel="5.33" startupDelay="1.22" tau="3.37" maxSpeed="23.5" speedFactor="0.64" ccoolness="0.27" sigmaleader="0.14" sigmagap="0.36" sigmaerror="0.07" jerkmax="2.83" epsilonacc="0.98" taccmax="1.52" lcStrategic="0.91" lcCooperative="0.59" lcSpeedGain="0.65" lcKeepRight="1.56" lcOvertakeRight="0.25" lcSpeedGainLookahead="1.53" lcOvertakeDeltaSpeedFactor="0.25" lcPushy="0.19" lcAssertive="1.34" lcImpatience="0.12" lcTimeToImpatience="18.52" lcLaneDiscipline="1.35" lcSigma="0.06" lcAccelLat="0.84" probability="0.06830274671187946">
		<param key="device.rerouting.probability" value="1.0" />
		<param key="device.rerouting.adaptation-steps" value="18" />
		<param key="device.rerouting.adaptation-interval" value="10" />
	</vType>
	<vType id="v_normal1" carFollowModel="EIDM" laneChangeModel="SL2015" minGap="2.02" accel="1.69" decel="2.83" emergencyDecel="4.86" startupDelay="1.48" tau="2.49" maxSpeed="26.58" speedFactor="0.79" ccoolness="0.35" sigmaleader="0.29" sigmagap="0.34" sigmaerror="0.07" jerkmax="3.21" epsilonacc="0.85" taccmax="1.23" lcStrategic="0.88" lcCooperative="0.64" lcSpeedGain="0.72" lcKeepRight="1.45" lcOvertakeRight="0.25" lcSpeedGainLookahead="1.56" lcOvertakeDeltaSpeedFactor="0.42" lcPushy="0.37" lcAssertive="1.37" lcImpatience="0.08" lcTimeToImpatience="17.02" lcLaneDiscipline="1.32" lcSigma="0.04" lcAccelLat="0.7" probability="0.16807576809231486">
		<param key="device.rerouting.probability" value="1.0" />
		<param key="device.rerouting.adaptation-steps" value="18" />
		<param key="device.rerouting.adaptation-interval" value="10" />
	</vType>
	<vType id="v_normal0" carFollowModel="EIDM" laneChangeModel="SL2015" minGap="1.99" accel="1.9" decel="2.27" emergencyDecel="5.05" startupDelay="1.55" tau="2.35" maxSpeed="31.72" speedFactor="0.63" ccoolness="0.29" sigmaleader="0.2" sigmagap="0.3" sigmaerror="0.07" jerkmax="2.98" epsilonacc="0.7" taccmax="1.72" lcStrategic="0.73" lcCooperative="0.6" lcSpeedGain="0.89" lcKeepRight="1.8" lcOvertakeRight="0.19" lcSpeedGainLookahead="1.67" lcOvertakeDeltaSpeedFactor="0.24" lcPushy="0.23" lcAssertive="1.57" lcImpatience="0.06" lcTimeToImpatience="13.96" lcLaneDiscipline="1.71" lcSigma="0.07" lcAccelLat="0.51" probability="0.502855024919639">
		<param key="device.rerouting.probability" value="1.0" />
		<param key="device.rerouting.adaptation-steps" value="18" />
		<param key="device.rerouting.adaptation-interval" value="10" />
	</vType>
	<vehicle id="0" depart="0.00" type="v_normal2">
        <route edges="20.0.00 48.0.00 -32.0.00 -6.0.00 -7.0.00 -8.0.00 -9.0.00 -10.0.00" />
    </vehicle>
    <vehicle id="1" depart="10.00" type="v_normal1">
        <route edges="-36.0.00 -27.0.00 -28.0.00" />
    </vehicle>
    <vehicle id="2" depart="20.00" type="v_normal0">
        <route edges="28.0.00 27.0.00 -38.0.00 -13.0.00 -14.0.00 -16.0.00 -26.0.00 -21.0.00 -41.0.00 -42.0.00 23.0.00" />
    </vehicle>
    <vehicle id="3" depart="30.00" type="v_normal4">
        <route edges="45.0.00 8.0.00 7.0.00 6.0.00 -16.0.00" />
    </vehicle>
    <vehicle id="4" depart="40.00" type="v_normal4">
        <route edges="-48.0.00 -20.0.00 -28.0.00 -29.0.00 -0.0.00 -1.0.00 -2.0.00 -44.0.00 -9.0.00 -10.0.00" />
    </vehicle>
    <vehicle id="5" depart="50.00" type="v_normal0">
        <route edges="-28.0.00 -29.0.00 25.0.00 -6.0.00 -7.0.00 -8.0.00" />
    </vehicle>
    <vehicle id="6" depart="60.00" type="v_normal1">
        <route edges="-10.0.00 3.0.00 2.0.00 1.0.00 0.0.00 -26.0.00" />
    </vehicle>
    <vehicle id="7" depart="70.00" type="v_normal0">
        <route edges="20.0.00 48.0.00 -32.0.00 -6.0.00 -7.0.00 -5.0.00 1.0.00" />
    </vehicle>
    <vehicle id="8" depart="80.00" type="v_normal3">
        <route edges="-28.0.00 -29.0.00 25.0.00 15.0.00" />
    </vehicle>
    <vehicle id="9" depart="90.00" type="v_normal1">
        <route edges="39.0.00 31.0.00 -29.0.00 -0.0.00" />
    </vehicle>
    <vehicle id="10" depart="100.00" type="v_normal0">
        <route edges="39.0.00 -32.0.00 -6.0.00 -7.0.00 -8.0.00 -9.0.00 -10.0.00 -11.0.00 24.0.00" />
    </vehicle>
    <vehicle id="11" depart="110.00" type="v_normal4">
        <route edges="-42.0.00 -43.0.00 2.0.00 1.0.00 -18.0.00 -22.0.00" />
    </vehicle>
    <vehicle id="12" depart="120.00" type="v_normal2">
        <route edges="6.0.00 -16.0.00 -26.0.00 -21.0.00 -41.0.00" />
    </vehicle>
    <vehicle id="13" depart="130.00" type="v_normal4">
        <route edges="-18.0.00" />
    </vehicle>
    <vehicle id="14" depart="140.00" type="v_normal2">
        <route edges="41.0.00 40.0.00 17.0.00" />
    </vehicle>
    <vehicle id="15" depart="150.00" type="v_normal2">
        <route edges="39.0.00 31.0.00 28.0.00" />
    </vehicle>
    <vehicle id="16" depart="160.00" type="v_normal1">
        <route edges="0.0.00 -26.0.00 -21.0.00 40.0.00 -1.0.00 49.0.00 7.0.00" />
    </vehicle>
    <vehicle id="17" depart="170.00" type="v_normal0">
        <route edges="-45.0.00 -4.0.00 -5.0.00 -2.0.00 -3.0.00 10.0.00" />
    </vehicle>
    <vehicle id="18" depart="180.00" type="v_normal2">
        <route edges="40.0.00 0.0.00 39.0.00 -48.0.00 19.0.00" />
    </vehicle>
    <vehicle id="19" depart="190.00" type="v_normal0">
        <route edges="42.0.00 41.0.00 21.0.00 -29.0.00 25.0.00 15.0.00 13.0.00" />
    </vehicle>
    <vehicle id="20" depart="200.00" type="v_normal1">
        <route edges="25.0.00 -6.0.00 -7.0.00 -8.0.00 -9.0.00 -10.0.00 -11.0.00" />
    </vehicle>
    <vehicle id="21" depart="210.00" type="v_normal0">
        <route edges="-29.0.00 39.0.00 31.0.00 28.0.00 27.0.00 -38.0.00" />
    </vehicle>
    <vehicle id="22" depart="220.00" type="v_normal1">
        <route edges="-16.0.00 39.0.00 31.0.00 -29.0.00" />
    </vehicle>
    <vehicle id="23" depart="230.00" type="v_normal0">
        <route edges="-19.0.00 48.0.00 -32.0.00 15.0.00 13.0.00 -36.0.00" />
    </vehicle>
    <vehicle id="24" depart="240.00" type="v_normal4">
        <route edges="2.0.00 -50.0.00 -23.0.00 -43.0.00 -44.0.00" />
    </vehicle>
    <vehicle id="25" depart="250.00" type="v_normal3">
        <route edges="-44.0.00 8.0.00 7.0.00 6.0.00 15.0.00 13.0.00 35.0.00 -27.0.00" />
    </vehicle>
    <vehicle id="26" depart="260.00" type="v_normal1">
        <route edges="-32.0.00 -16.0.00 -0.0.00 -1.0.00 49.0.00" />
    </vehicle>
    <vehicle id="27" depart="270.00" type="v_normal4">
        <route edges="20.0.00 48.0.00 -39.0.00 -0.0.00 17.0.00" />
    </vehicle>
    <vehicle id="28" depart="280.00" type="v_normal2">
        <route edges="-23.0.00 42.0.00 41.0.00 21.0.00 28.0.00" />
    </vehicle>
    <vehicle id="29" depart="290.00" type="v_normal0">
        <route edges="-23.0.00 -43.0.00 -44.0.00 -45.0.00" />
    </vehicle>
    <vehicle id="30" depart="300.00" type="v_normal1">
        <route edges="9.0.00 8.0.00 7.0.00 6.0.00 15.0.00 13.0.00 35.0.00 -27.0.00 20.0.00" />
    </vehicle>
    <vehicle id="31" depart="310.00" type="v_normal1">
        <route edges="10.0.00 9.0.00 44.0.00 43.0.00 23.0.00" />
    </vehicle>
    <vehicle id="32" depart="320.00" type="v_normal3">
        <route edges="41.0.00 21.0.00 -29.0.00 25.0.00 15.0.00 13.0.00 35.0.00" />
    </vehicle>
    <vehicle id="33" depart="330.00" type="v_normal0">
        <route edges="-29.0.00 -0.0.00 -1.0.00 -2.0.00 -44.0.00 -9.0.00 -10.0.00" />
    </vehicle>
    <vehicle id="34" depart="340.00" type="v_normal2">
        <route edges="-4.0.00 -5.0.00 1.0.00 0.0.00 39.0.00 -32.0.00" />
    </vehicle>
    <vehicle id="35" depart="350.00" type="v_normal2">
        <route edges="-27.0.00 -28.0.00 -21.0.00 -22.0.00 51.0.00" />
    </vehicle>
    <vehicle id="36" depart="360.00" type="v_normal4">
        <route edges="44.0.00 -3.0.00 10.0.00 9.0.00 -45.0.00 -4.0.00" />
    </vehicle>
    <vehicle id="37" depart="370.00" type="v_normal1">
        <route edges="21.0.00 -29.0.00 -0.0.00 -1.0.00 49.0.00 4.0.00 -46.0.00" />
    </vehicle>
    <vehicle id="38" depart="380.00" type="v_normal4">
        <route edges="48.0.00 31.0.00 -21.0.00 -41.0.00 -51.0.00" />
    </vehicle>
    <vehicle id="39" depart="390.00" type="v_normal4">
        <route edges="-32.0.00 -6.0.00 -7.0.00 -5.0.00 -2.0.00 -3.0.00" />
    </vehicle>
    <vehicle id="40" depart="400.00" type="v_normal4">
        <route edges="10.0.00 9.0.00 44.0.00 2.0.00 1.0.00 0.0.00 39.0.00 -32.0.00" />
    </vehicle>
    <vehicle id="41" depart="410.00" type="v_normal2">
        <route edges="13.0.00 35.0.00 -27.0.00 -28.0.00 -29.0.00 -0.0.00 17.0.00 46.0.00 45.0.00" />
    </vehicle>
    <vehicle id="42" depart="420.00" type="v_normal4">
        <route edges="-46.0.00 6.0.00 33.0.00 -48.0.00 -20.0.00 -28.0.00" />
    </vehicle>
    <vehicle id="43" depart="430.00" type="v_normal4">
        <route edges="9.0.00 -45.0.00 -4.0.00 -8.0.00" />
    </vehicle>
    <vehicle id="44" depart="440.00" type="v_normal0">
        <route edges="-18.0.00 -22.0.00 -52.0.00 -2.0.00 -3.0.00 -11.0.00" />
    </vehicle>
    <vehicle id="45" depart="450.00" type="v_normal4">
        <route edges="-19.0.00 48.0.00 -32.0.00 -6.0.00 -7.0.00 -8.0.00 44.0.00 2.0.00" />
    </vehicle>
    <vehicle id="46" depart="460.00" type="v_normal0">
        <route edges="37.0.00 -13.0.00 -14.0.00 33.0.00 -48.0.00" />
    </vehicle>
    <vehicle id="47" depart="470.00" type="v_normal1">
        <route edges="-14.0.00 -6.0.00 -7.0.00 -8.0.00 -45.0.00" />
    </vehicle>
    <vehicle id="48" depart="480.00" type="v_normal1">
        <route edges="9.0.00 44.0.00 2.0.00 1.0.00 0.0.00" />
    </vehicle>
    <vehicle id="49" depart="490.00" type="v_normal0">
        <route edges="7.0.00 -47.0.00 -1.0.00 -2.0.00 43.0.00 42.0.00" />
    </vehicle>
    <vehicle id="50" depart="500.00" type="v_normal1">
        <route edges="-0.0.00 -18.0.00 21.0.00 28.0.00 27.0.00" />
    </vehicle>
    <vehicle id="51" depart="510.00" type="v_normal4">
        <route edges="23.0.00 -52.0.00 1.0.00 0.0.00" />
    </vehicle>
    <vehicle id="52" depart="520.00" type="v_normal3">
        <route edges="-32.0.00 15.0.00 13.0.00 35.0.00 -27.0.00 20.0.00" />
    </vehicle>
    <vehicle id="53" depart="530.00" type="v_normal4">
        <route edges="-19.0.00 48.0.00 -32.0.00 -6.0.00 -7.0.00 -5.0.00" />
    </vehicle>
    <vehicle id="54" depart="540.00" type="v_normal0">
        <route edges="-51.0.00 -52.0.00 49.0.00 7.0.00 6.0.00" />
    </vehicle>
    <vehicle id="55" depart="550.00" type="v_normal4">
        <route edges="44.0.00 2.0.00 1.0.00 0.0.00 39.0.00 -32.0.00" />
    </vehicle>
    <vehicle id="56" depart="560.00" type="v_normal2">
        <route edges="-8.0.00 44.0.00 43.0.00 -24.0.00" />
    </vehicle>
    <vehicle id="57" depart="570.00" type="v_normal0">
        <route edges="48.0.00 -39.0.00 -0.0.00 -1.0.00 -2.0.00 43.0.00" />
    </vehicle>
    <vehicle id="58" depart="580.00" type="v_normal2">
        <route edges="-38.0.00 -36.0.00 -27.0.00 20.0.00" />
    </vehicle>
    <vehicle id="59" depart="590.00" type="v_normal1">
        <route edges="17.0.00 6.0.00 -16.0.00 -26.0.00 -21.0.00 -22.0.00" />
    </vehicle>
    <vehicle id="60" depart="600.00" type="v_normal0">
        <route edges="33.0.00 31.0.00 -21.0.00 -22.0.00 -52.0.00 1.0.00" />
    </vehicle>
    <vehicle id="61" depart="610.00" type="v_normal2">
        <route edges="35.0.00 -27.0.00 -28.0.00 -21.0.00 40.0.00 0.0.00" />
    </vehicle>
    <vehicle id="62" depart="620.00" type="v_normal0">
        <route edges="-0.0.00 17.0.00 46.0.00 -4.0.00" />
    </vehicle>
    <vehicle id="63" depart="630.00" type="v_normal1">
        <route edges="-1.0.00 49.0.00" />
    </vehicle>
    <vehicle id="64" depart="640.00" type="v_normal0">
        <route edges="44.0.00 2.0.00 -50.0.00 22.0.00 40.0.00" />
    </vehicle>
    <vehicle id="65" depart="650.00" type="v_normal3">
        <route edges="-39.0.00 -26.0.00 28.0.00 27.0.00 -38.0.00 -13.0.00" />
    </vehicle>
    <vehicle id="66" depart="660.00" type="v_normal3">
        <route edges="44.0.00 2.0.00 -50.0.00 51.0.00" />
    </vehicle>
    <vehicle id="67" depart="670.00" type="v_normal0">
        <route edges="-16.0.00 39.0.00 -32.0.00 -6.0.00" />
    </vehicle>
    <vehicle id="68" depart="680.00" type="v_normal0">
        <route edges="-14.0.00 33.0.00 31.0.00" />
    </vehicle>
    <vehicle id="69" depart="690.00" type="v_normal2">
        <route edges="33.0.00 -48.0.00 -20.0.00" />
    </vehicle>
    <vehicle id="70" depart="700.00" type="v_normal0">
        <route edges="-6.0.00 -7.0.00 -5.0.00 1.0.00" />
    </vehicle>
    <vehicle id="71" depart="710.00" type="v_normal3">
        <route edges="-32.0.00 -6.0.00 -7.0.00 -8.0.00 44.0.00 43.0.00" />
    </vehicle>
    <vehicle id="72" depart="720.00" type="v_normal0">
        <route edges="-48.0.00 19.0.00 13.0.00 35.0.00 -27.0.00" />
    </vehicle>
    <vehicle id="73" depart="730.00" type="v_normal4">
        <route edges="1.0.00 0.0.00 -26.0.00 28.0.00" />
    </vehicle>
    <vehicle id="74" depart="740.00" type="v_normal3">
        <route edges="-27.0.00 -28.0.00 -30.0.00 -39.0.00" />
    </vehicle>
    <vehicle id="75" depart="750.00" type="v_normal3">
        <route edges="9.0.00 8.0.00 7.0.00 6.0.00 15.0.00 13.0.00 35.0.00 -27.0.00 20.0.00" />
    </vehicle>
    <vehicle id="76" depart="760.00" type="v_normal0">
        <route edges="-50.0.00 -23.0.00 -43.0.00 -44.0.00 -9.0.00" />
    </vehicle>
    <vehicle id="77" depart="770.00" type="v_normal0">
        <route edges="-2.0.00 -44.0.00 8.0.00 7.0.00 6.0.00 33.0.00 -48.0.00 -20.0.00 -28.0.00" />
    </vehicle>
    <vehicle id="78" depart="780.00" type="v_normal4">
        <route edges="-42.0.00 -43.0.00 2.0.00 1.0.00 0.0.00 25.0.00 15.0.00" />
    </vehicle>
    <vehicle id="79" depart="790.00" type="v_normal1">
        <route edges="-29.0.00 39.0.00 -48.0.00 -20.0.00 -28.0.00" />
    </vehicle>
    <vehicle id="80" depart="800.00" type="v_normal4">
        <route edges="-14.0.00 -6.0.00 -7.0.00 -8.0.00 44.0.00 2.0.00" />
    </vehicle>
    <vehicle id="81" depart="810.00" type="v_normal2">
        <route edges="-29.0.00 -0.0.00 17.0.00 46.0.00" />
    </vehicle>
    <vehicle id="82" depart="820.00" type="v_normal3">
        <route edges="42.0.00 41.0.00 21.0.00 28.0.00 27.0.00 -38.0.00 -13.0.00 -14.0.00" />
    </vehicle>
    <vehicle id="83" depart="830.00" type="v_normal3">
        <route edges="-3.0.00 -11.0.00 24.0.00 23.0.00 22.0.00" />
    </vehicle>
    <vehicle id="84" depart="840.00" type="v_normal2">
        <route edges="-28.0.00 -30.0.00 -48.0.00 -20.0.00" />
    </vehicle>
    <vehicle id="85" depart="850.00" type="v_normal4">
        <route edges="49.0.00 -8.0.00 44.0.00 43.0.00 -24.0.00 11.0.00" />
    </vehicle>
    <vehicle id="86" depart="860.00" type="v_normal3">
        <route edges="-52.0.00 49.0.00 7.0.00 6.0.00 15.0.00 13.0.00 35.0.00" />
    </vehicle>
    <vehicle id="87" depart="870.00" type="v_normal4">
        <route edges="39.0.00 -32.0.00 -16.0.00 -26.0.00" />
    </vehicle>
    <vehicle id="88" depart="880.00" type="v_normal4">
        <route edges="-18.0.00 -22.0.00 -52.0.00 -2.0.00 -44.0.00 8.0.00 -5.0.00" />
    </vehicle>
    <vehicle id="89" depart="890.00" type="v_normal2">
        <route edges="-48.0.00 -20.0.00 -28.0.00 -21.0.00 -22.0.00 -52.0.00" />
    </vehicle>
    <vehicle id="90" depart="900.00" type="v_normal1">
        <route edges="28.0.00 27.0.00 -38.0.00 -13.0.00 -14.0.00 -6.0.00 -7.0.00 -5.0.00 -50.0.00 22.0.00" />
    </vehicle>
    <vehicle id="91" depart="910.00" type="v_normal0">
        <route edges="8.0.00 7.0.00 -47.0.00 -18.0.00" />
    </vehicle>
    <vehicle id="92" depart="920.00" type="v_normal1">
        <route edges="-47.0.00 -18.0.00 -41.0.00 -42.0.00" />
    </vehicle>
    <vehicle id="93" depart="930.00" type="v_normal1">
        <route edges="42.0.00 -51.0.00 -52.0.00 -2.0.00 -3.0.00" />
    </vehicle>
    <vehicle id="94" depart="940.00" type="v_normal0">
        <route edges="-26.0.00 -21.0.00 40.0.00 -1.0.00 -50.0.00" />
    </vehicle>
    <vehicle id="95" depart="950.00" type="v_normal1">
        <route edges="-48.0.00 19.0.00 13.0.00 -36.0.00" />
    </vehicle>
    <vehicle id="96" depart="960.00" type="v_normal0">
        <route edges="-3.0.00 10.0.00 9.0.00 8.0.00 7.0.00 6.0.00 15.0.00 -19.0.00 48.0.00" />
    </vehicle>
    <vehicle id="97" depart="970.00" type="v_normal2">
        <route edges="-50.0.00 -23.0.00 42.0.00" />
    </vehicle>
    <vehicle id="98" depart="980.00" type="v_normal1">
        <route edges="10.0.00 9.0.00 44.0.00 2.0.00 1.0.00 0.0.00 -26.0.00 28.0.00 27.0.00 -38.0.00 -13.0.00" />
    </vehicle>
    <vehicle id="99" depart="990.00" type="v_normal1">
        <route edges="9.0.00 44.0.00 2.0.00 -50.0.00 22.0.00 40.0.00" />
    </vehicle>
    <vehicle id="100" depart="1000.00" type="v_aggressive0">
        <route edges="7.0.00 -47.0.00 -1.0.00 49.0.00" />
    </vehicle>
    <vehicle id="101" depart="1010.00" type="v_aggressive2">
        <route edges="41.0.00 -22.0.00 -23.0.00" />
    </vehicle>
    <vehicle id="102" depart="1020.00" type="v_aggressive1">
        <route edges="-6.0.00 -47.0.00 0.0.00 39.0.00 -48.0.00 -20.0.00 -28.0.00" />
    </vehicle>
    <vehicle id="103" depart="1030.00" type="v_aggressive2">
        <route edges="-47.0.00 0.0.00 -26.0.00 28.0.00 27.0.00 -38.0.00 -13.0.00" />
    </vehicle>
    <vehicle id="104" depart="1040.00" type="v_aggressive4">
        <route edges="-45.0.00 -4.0.00 -5.0.00 -2.0.00 -44.0.00 8.0.00" />
    </vehicle>
    <vehicle id="105" depart="1050.00" type="v_aggressive1">
        <route edges="-32.0.00 15.0.00 13.0.00 35.0.00" />
    </vehicle>
    <vehicle id="106" depart="1060.00" type="v_aggressive4">
        <route edges="-51.0.00 22.0.00 21.0.00 -30.0.00 -48.0.00" />
    </vehicle>
    <vehicle id="107" depart="1070.00" type="v_aggressive4">
        <route edges="6.0.00 -16.0.00 -0.0.00 -1.0.00 -2.0.00 -3.0.00 10.0.00 9.0.00" />
    </vehicle>
    <vehicle id="108" depart="1080.00" type="v_aggressive1">
        <route edges="10.0.00 9.0.00 44.0.00 2.0.00 1.0.00 0.0.00 -26.0.00 28.0.00 27.0.00" />
    </vehicle>
    <vehicle id="109" depart="1090.00" type="v_aggressive3">
        <route edges="-22.0.00 51.0.00 41.0.00 21.0.00 28.0.00 27.0.00 -38.0.00" />
    </vehicle>
    <vehicle id="110" depart="1100.00" type="v_aggressive3">
        <route edges="7.0.00 6.0.00 15.0.00 13.0.00" />
    </vehicle>
    <vehicle id="111" depart="1110.00" type="v_aggressive2">
        <route edges="1.0.00 -18.0.00 -22.0.00 -23.0.00 -24.0.00 11.0.00 3.0.00" />
    </vehicle>
    <vehicle id="112" depart="1120.00" type="v_aggressive1">
        <route edges="-13.0.00 -14.0.00 33.0.00 -39.0.00 25.0.00 15.0.00 13.0.00" />
    </vehicle>
    <vehicle id="113" depart="1130.00" type="v_aggressive3">
        <route edges="-8.0.00 44.0.00 43.0.00 42.0.00" />
    </vehicle>
    <vehicle id="114" depart="1140.00" type="v_aggressive1">
        <route edges="-22.0.00 -52.0.00 49.0.00 7.0.00 6.0.00" />
    </vehicle>
    <vehicle id="115" depart="1150.00" type="v_aggressive2">
        <route edges="-16.0.00 -0.0.00 -1.0.00 -2.0.00 43.0.00 -24.0.00" />
    </vehicle>
    <vehicle id="116" depart="1160.00" type="v_aggressive2">
        <route edges="15.0.00 -19.0.00 48.0.00 31.0.00 -21.0.00 -41.0.00 -42.0.00 23.0.00" />
    </vehicle>
    <vehicle id="117" depart="1170.00" type="v_aggressive0">
        <route edges="-29.0.00 -0.0.00 -1.0.00 -2.0.00" />
    </vehicle>
    <vehicle id="118" depart="1180.00" type="v_aggressive3">
        <route edges="45.0.00 44.0.00 -3.0.00" />
    </vehicle>
    <vehicle id="119" depart="1190.00" type="v_aggressive4">
        <route edges="15.0.00 -19.0.00 48.0.00 -39.0.00 25.0.00 33.0.00 -48.0.00 19.0.00" />
    </vehicle>
    <vehicle id="120" depart="1200.00" type="v_aggressive4">
        <route edges="-48.0.00 19.0.00 13.0.00" />
    </vehicle>
    <vehicle id="121" depart="1210.00" type="v_aggressive3">
        <route edges="-9.0.00 -10.0.00 3.0.00 2.0.00 49.0.00" />
    </vehicle>
    <vehicle id="122" depart="1220.00" type="v_aggressive4">
        <route edges="-27.0.00 -28.0.00 -29.0.00 39.0.00 31.0.00 28.0.00 27.0.00" />
    </vehicle>
    <vehicle id="123" depart="1230.00" type="v_aggressive2">
        <route edges="-3.0.00 10.0.00 9.0.00 -45.0.00 -46.0.00" />
    </vehicle>
    <vehicle id="124" depart="1240.00" type="v_aggressive2">
        <route edges="22.0.00 21.0.00 28.0.00 27.0.00 -38.0.00" />
    </vehicle>
    <vehicle id="125" depart="1250.00" type="v_aggressive2">
        <route edges="-4.0.00 7.0.00 6.0.00 33.0.00 31.0.00" />
    </vehicle>
    <vehicle id="126" depart="1260.00" type="v_aggressive4">
        <route edges="-14.0.00 -16.0.00 -26.0.00 -21.0.00 -41.0.00 -51.0.00" />
    </vehicle>
    <vehicle id="127" depart="1270.00" type="v_aggressive0">
        <route edges="9.0.00" />
    </vehicle>
    <vehicle id="128" depart="1280.00" type="v_aggressive2">
        <route edges="-14.0.00 33.0.00 -48.0.00 -20.0.00 -28.0.00" />
    </vehicle>
    <vehicle id="129" depart="1290.00" type="v_aggressive3">
        <route edges="-32.0.00 -16.0.00 -0.0.00 -1.0.00 49.0.00" />
    </vehicle>
    <vehicle id="130" depart="1300.00" type="v_aggressive0">
        <route edges="44.0.00" />
    </vehicle>
    <vehicle id="131" depart="1310.00" type="v_aggressive0">
        <route edges="-44.0.00 8.0.00 7.0.00 -47.0.00 -18.0.00 -22.0.00" />
    </vehicle>
    <vehicle id="132" depart="1320.00" type="v_aggressive2">
        <route edges="40.0.00 0.0.00 25.0.00" />
    </vehicle>
    <vehicle id="133" depart="1330.00" type="v_aggressive1">
        <route edges="17.0.00 46.0.00 45.0.00 8.0.00" />
    </vehicle>
    <vehicle id="134" depart="1340.00" type="v_aggressive3">
        <route edges="21.0.00 -29.0.00 -0.0.00" />
    </vehicle>
    <vehicle id="135" depart="1350.00" type="v_aggressive2">
        <route edges="4.0.00 -46.0.00 6.0.00 -16.0.00 -26.0.00 28.0.00 27.0.00 -38.0.00" />
    </vehicle>
    <vehicle id="136" depart="1360.00" type="v_aggressive0">
        <route edges="22.0.00 -41.0.00 -42.0.00 23.0.00 51.0.00" />
    </vehicle>
    <vehicle id="137" depart="1370.00" type="v_aggressive3">
        <route edges="-20.0.00 -28.0.00 -29.0.00 -0.0.00 -1.0.00 -2.0.00" />
    </vehicle>
    <vehicle id="138" depart="1380.00" type="v_aggressive1">
        <route edges="-19.0.00 48.0.00 -39.0.00 -0.0.00 -1.0.00 -2.0.00 -3.0.00 10.0.00" />
    </vehicle>
    <vehicle id="139" depart="1390.00" type="v_aggressive1">
        <route edges="-32.0.00 -16.0.00 -0.0.00 17.0.00" />
    </vehicle>
    <vehicle id="140" depart="1400.00" type="v_aggressive0">
        <route edges="27.0.00 37.0.00 35.0.00 -27.0.00" />
    </vehicle>
    <vehicle id="141" depart="1410.00" type="v_aggressive0">
        <route edges="2.0.00 1.0.00 0.0.00 39.0.00 -32.0.00" />
    </vehicle>
    <vehicle id="142" depart="1420.00" type="v_aggressive0">
        <route edges="-7.0.00 -5.0.00 1.0.00 17.0.00 46.0.00" />
    </vehicle>
    <vehicle id="143" depart="1430.00" type="v_aggressive3">
        <route edges="41.0.00 -22.0.00 -52.0.00 1.0.00 -18.0.00" />
    </vehicle>
    <vehicle id="144" depart="1440.00" type="v_aggressive3">
        <route edges="-48.0.00 19.0.00 13.0.00 -36.0.00" />
    </vehicle>
    <vehicle id="145" depart="1450.00" type="v_aggressive3">
        <route edges="-0.0.00 17.0.00 6.0.00 33.0.00" />
    </vehicle>
    <vehicle id="146" depart="1460.00" type="v_aggressive0">
        <route edges="2.0.00 1.0.00 0.0.00 -26.0.00 -30.0.00" />
    </vehicle>
    <vehicle id="147" depart="1470.00" type="v_aggressive1">
        <route edges="3.0.00 43.0.00 -24.0.00 11.0.00 10.0.00" />
    </vehicle>
    <vehicle id="148" depart="1480.00" type="v_aggressive2">
        <route edges="-5.0.00 1.0.00 17.0.00 6.0.00 -16.0.00 -0.0.00" />
    </vehicle>