<?xml version='1.0' encoding='utf-8'?>
<routes xmlns:xsi="http://www.w3.org/2001/XMLSchema-instance" xsi:noNamespaceSchemaLocation="http://sumo.dlr.de/xsd/routes_file.xsd">
    <vType id="v_aggressive4" carFollowModel="EIDM" laneChangeModel="SL2015" minGap="1.23" accel="5.13" decel="4.56" emergencyDecel="9.11" startupDelay="1.3" tau="1.66" maxSpeed="94.55" speedFactor="0.83" ccoolness="0.88" sigmaleader="0.44" sigmagap="0.48" sigmaerror="0.33" jerkmax="22.23" epsilonacc="2.47" taccmax="1.15" lcStrategic="0.58" lcCooperative="0.34" lcSpeedGain="0.74" lcKeepRight="0.31" lcOvertakeRight="0.51" lcSpeedGainLookahead="2.12" lcOvertakeDeltaSpeedFactor="0.73" lcPushy="0.71" lcAssertive="3.05" lcImpatience="0.69" lcTimeToImpatience="3.42" lcLaneDiscipline="0.4" lcSigma="0.4" lcAccelLat="26.41" probability="0.11308277753524058">
		<param key="device.rerouting.probability" value="1.0" />
		<param key="device.rerouting.adaptation-steps" value="18" />
		<param key="device.rerouting.adaptation-interval" value="10" />
	</vType>
<vType id="v_aggressive3" carFollowModel="EIDM" laneChangeModel="SL2015" minGap="1.06" accel="5.4" decel="5.18" emergencyDecel="9.84" startupDelay="0.79" tau="2.15" maxSpeed="80.88" speedFactor="0.95" ccoolness="0.83" sigmaleader="0.37" sigmagap="0.47" sigmaerror="0.45" jerkmax="26.36" epsilonacc="2.29" taccmax="1.28" lcStrategic="0.81" lcCooperative="0.26" lcSpeedGain="0.55" lcKeepRight="0.45" lcOvertakeRight="0.59" lcSpeedGainLookahead="1.65" lcOvertakeDeltaSpeedFactor="0.5" lcPushy="0.6" lcAssertive="2.51" lcImpatience="0.76" lcTimeToImpatience="4.48" lcLaneDiscipline="0.28" lcSigma="0.42" lcAccelLat="23.49" probability="0.20977490112820688">
		<param key="device.rerouting.probability" value="1.0" />
		<param key="device.rerouting.adaptation-steps" value="18" />
		<param key="device.rerouting.adaptation-interval" value="10" />
	</vType>
	<vType id="v_aggressive2" carFollowModel="EIDM" laneChangeModel="SL2015" minGap="1.24" accel="4.73" decel="4.21" emergencyDecel="7.64" startupDelay="1.28" tau="2.53" maxSpeed="92.93" speedFactor="0.92" ccoolness="0.87" sigmaleader="0.43" sigmagap="0.4" sigmaerror="0.42" jerkmax="25.43" epsilonacc="2.6" taccmax="0.99" lcStrategic="0.61" lcCooperative="0.3" lcSpeedGain="0.55" lcKeepRight="0.4" lcOvertakeRight="0.62" lcSpeedGainLookahead="1.8" lcOvertakeDeltaSpeedFactor="0.67" lcPushy="0.63" lcAssertive="2.78" lcImpatience="0.62" lcTimeToImpatience="3.79" lcLaneDiscipline="0.34" lcSigma="0.42" lcAccelLat="23.3" probability="0.31256804192909354">
		<param key="device.rerouting.probability" value="1.0" />
		<param key="device.rerouting.adaptation-steps" value="18" />
		<param key="device.rerouting.adaptation-interval" value="10" />
	</vType>
	<vType id="v_aggressive1" carFollowModel="EIDM" laneChangeModel="SL2015" minGap="1.35" accel="5.57" decel="4.57" emergencyDecel="8.51" startupDelay="1.26" tau="1.46" maxSpeed="76.72" speedFactor="0.91" ccoolness="0.81" sigmaleader="0.27" sigmagap="0.43" sigmaerror="0.31" jerkmax="23.94" epsilonacc="2.54" taccmax="0.92" lcStrategic="0.63" lcCooperative="0.2" lcSpeedGain="0.53" lcKeepRight="0.52" lcOvertakeRight="0.64" lcSpeedGainLookahead="1.53" lcOvertakeDeltaSpeedFactor="0.72" lcPushy="0.59" lcAssertive="2.29" lcImpatience="0.67" lcTimeToImpatience="3.66" lcLaneDiscipline="0.29" lcSigma="0.37" lcAccelLat="24.03" probability="0.1337484903008192">
		<param key="device.rerouting.probability" value="1.0" />
		<param key="device.rerouting.adaptation-steps" value="18" />
		<param key="device.rerouting.adaptation-interval" value="10" />
	</vType>
	<vType id="v_aggressive0" carFollowModel="EIDM" laneChangeModel="SL2015" minGap="1.32" accel="5.63" decel="5.64" emergencyDecel="8.83" startupDelay="1.11" tau="1.35" maxSpeed="83.35" speedFactor="1.02" ccoolness="0.79" sigmaleader="0.39" sigmagap="0.46" sigmaerror="0.47" jerkmax="25.48" epsilonacc="2.52" taccmax="1.0" lcStrategic="0.55" lcCooperative="0.29" lcSpeedGain="0.77" lcKeepRight="0.35" lcOvertakeRight="0.64" lcSpeedGainLookahead="1.07" lcOvertakeDeltaSpeedFactor="0.64" lcPushy="0.64" lcAssertive="2.3" lcImpatience="0.65" lcTimeToImpatience="1.79" lcLaneDiscipline="0.2" lcSigma="0.33" lcAccelLat="24.85" probability="0.23082578910663987">
		<param key="device.rerouting.probability" value="1.0" />
		<param key="device.rerouting.adaptation-steps" value="18" />
		<param key="device.rerouting.adaptation-interval" value="10" />
	</vType>
	<vType id="v_normal4" carFollowModel="EIDM" laneChangeModel="SL2015" minGap="1.19" accel="2.94" decel="2.96" emergencyDecel="5.5" startupDelay="1.19" tau="1.94" maxSpeed="47.1" speedFactor="0.82" ccoolness="0.6" sigmaleader="0.26" sigmagap="0.23" sigmaerror="0.24" jerkmax="18.15" epsilonacc="0.97" taccmax="1.45" lcStrategic="0.31" lcCooperative="0.75" lcSpeedGain="0.35" lcKeepRight="0.77" lcOvertakeRight="0.13" lcSpeedGainLookahead="2.03" lcOvertakeDeltaSpeedFactor="0.4" lcPushy="0.2" lcAssertive="1.1" lcImpatience="0.32" lcTimeToImpatience="12.35" lcLaneDiscipline="0.91" lcSigma="0.19" lcAccelLat="18.01" probability="0.14950016337493213">
		<param key="device.rerouting.probability" value="1.0" />
		<param key="device.rerouting.adaptation-steps" value="18" />
		<param key="device.rerouting.adaptation-interval" value="10" />
	</vType>
<vType id="v_normal3" carFollowModel="EIDM" laneChangeModel="SL2015" minGap="1.73" accel="1.88" decel="3.36" emergencyDecel="6.69" startupDelay="1.64" tau="2.79" maxSpeed="52.91" speedFactor="0.77" ccoolness="0.49" sigmaleader="0.18" sigmagap="0.19" sigmaerror="0.22" jerkmax="19.77" epsilonacc="0.58" taccmax="1.95" lcStrategic="0.3" lcCooperative="0.69" lcSpeedGain="0.41" lcKeepRight="0.92" lcOvertakeRight="0.13" lcSpeedGainLookahead="2.55" lcOvertakeDeltaSpeedFactor="0.22" lcPushy="0.2" lcAssertive="0.98" lcImpatience="0.36" lcTimeToImpatience="9.87" lcLaneDiscipline="0.79" lcSigma="0.16" lcAccelLat="12.13" probability="0.04535001813962139">
		<param key="device.rerouting.probability" value="1.0" />
		<param key="device.rerouting.adaptation-steps" value="18" />
		<param key="device.rerouting.adaptation-interval" value="10" />
	</vType>
	<vType id="v_normal2" carFollowModel="EIDM" laneChangeModel="SL2015" minGap="1.86" accel="2.52" decel="3.03" emergencyDecel="6.71" startupDelay="1.02" tau="3.09" maxSpeed="58.27" speedFactor="0.84" ccoolness="0.65" sigmaleader="0.26" sigmagap="0.29" sigmaerror="0.16" jerkmax="19.41" epsilonacc="0.78" taccmax="1.53" lcStrategic="0.5" lcCooperative="0.6" lcSpeedGain="0.17" lcKeepRight="0.78" lcOvertakeRight="0.19" lcSpeedGainLookahead="3.51" lcOvertakeDeltaSpeedFactor="0.38" lcPushy="0.16" lcAssertive="1.38" lcImpatience="0.42" lcTimeToImpatience="13.61" lcLaneDiscipline="0.68" lcSigma="0.14" lcAccelLat="11.23" probability="0.07781627170508364">
		<param key="device.rerouting.probability" value="1.0" />
		<param key="device.rerouting.adaptation-steps" value="18" />
		<param key="device.rerouting.adaptation-interval" value="10" />
	</vType>
	<vType id="v_normal1" carFollowModel="EIDM" laneChangeModel="SL2015" minGap="2.35" accel="3.09" decel="2.05" emergencyDecel="6.38" startupDelay="1.5" tau="3.5" maxSpeed="57.63" speedFactor="0.86" ccoolness="0.52" sigmaleader="0.16" sigmagap="0.2" sigmaerror="0.17" jerkmax="20.6" epsilonacc="1.02" taccmax="1.79" lcStrategic="0.46" lcCooperative="0.59" lcSpeedGain="0.33" lcKeepRight="0.72" lcOvertakeRight="0.21" lcSpeedGainLookahead="3.13" lcOvertakeDeltaSpeedFactor="0.37" lcPushy="0.19" lcAssertive="1.73" lcImpatience="0.35" lcTimeToImpatience="18.25" lcLaneDiscipline="0.75" lcSigma="0.23" lcAccelLat="18.25" probability="0.3754603873080742">
		<param key="device.rerouting.probability" value="1.0" />
		<param key="device.rerouting.adaptation-steps" value="18" />
		<param key="device.rerouting.adaptation-interval" value="10" />
	</vType>
	<vType id="v_normal0" carFollowModel="EIDM" laneChangeModel="SL2015" minGap="2.14" accel="3.69" decel="3.08" emergencyDecel="7.53" startupDelay="1.89" tau="3.21" maxSpeed="41.12" speedFactor="0.87" ccoolness="0.41" sigmaleader="0.23" sigmagap="0.17" sigmaerror="0.25" jerkmax="15.25" epsilonacc="1.25" taccmax="1.61" lcStrategic="0.38" lcCooperative="0.61" lcSpeedGain="0.32" lcKeepRight="0.69" lcOvertakeRight="0.19" lcSpeedGainLookahead="3.55" lcOvertakeDeltaSpeedFactor="0.38" lcPushy="0.24" lcAssertive="1.64" lcImpatience="0.32" lcTimeToImpatience="11.94" lcLaneDiscipline="0.78" lcSigma="0.23" lcAccelLat="14.72" probability="0.35187315947228864">
		<param key="device.rerouting.probability" value="1.0" />
		<param key="device.rerouting.adaptation-steps" value="18" />
		<param key="device.rerouting.adaptation-interval" value="10" />
	</vType>
	<vehicle id="0" depart="0.00" type="v_normal1">
        <route edges="20.0.00 48.0.00 -32.0.00 -6.0.00 -7.0.00 -8.0.00 -9.0.00 -10.0.00" />
    </vehicle>
    <vehicle id="1" depart="10.00" type="v_normal4">
        <route edges="-36.0.00 -27.0.00 -28.0.00" />
    </vehicle>
    <vehicle id="2" depart="20.00" type="v_normal2">
        <route edges="28.0.00 27.0.00 -38.0.00 -13.0.00 -14.0.00 -16.0.00 -26.0.00 -21.0.00 -41.0.00 -42.0.00 23.0.00" />
    </vehicle>
    <vehicle id="3" depart="30.00" type="v_normal2">
        <route edges="45.0.00 8.0.00 7.0.00 6.0.00 -16.0.00" />
    </vehicle>
    <vehicle id="4" depart="40.00" type="v_normal3">
        <route edges="-48.0.00 -20.0.00 -28.0.00 -29.0.00 -0.0.00 -1.0.00 -2.0.00 -44.0.00 -9.0.00 -10.0.00" />
    </vehicle>
    <vehicle id="5" depart="50.00" type="v_normal0">
        <route edges="-28.0.00 -29.0.00 25.0.00 -6.0.00 -7.0.00 -8.0.00" />
    </vehicle>
    <vehicle id="6" depart="60.00" type="v_normal0">
        <route edges="-10.0.00 3.0.00 2.0.00 1.0.00 0.0.00 -26.0.00" />
    </vehicle>
    <vehicle id="7" depart="70.00" type="v_normal3">
        <route edges="20.0.00 48.0.00 -32.0.00 -6.0.00 -7.0.00 -5.0.00 1.0.00" />
    </vehicle>
    <vehicle id="8" depart="80.00" type="v_normal3">
        <route edges="-28.0.00 -29.0.00 25.0.00 15.0.00" />
    </vehicle>
    <vehicle id="9" depart="90.00" type="v_normal3">
        <route edges="39.0.00 31.0.00 -29.0.00 -0.0.00" />
    </vehicle>
    <vehicle id="10" depart="100.00" type="v_normal4">
        <route edges="39.0.00 -32.0.00 -6.0.00 -7.0.00 -8.0.00 -9.0.00 -10.0.00 -11.0.00 24.0.00" />
    </vehicle>
    <vehicle id="11" depart="110.00" type="v_normal3">
        <route edges="-42.0.00 -43.0.00 2.0.00 1.0.00 -18.0.00 -22.0.00" />
    </vehicle>
    <vehicle id="12" depart="120.00" type="v_normal2">
        <route edges="6.0.00 -16.0.00 -26.0.00 -21.0.00 -41.0.00" />
    </vehicle>
    <vehicle id="13" depart="130.00" type="v_normal0">
        <route edges="-18.0.00" />
    </vehicle>
    <vehicle id="14" depart="140.00" type="v_normal0">
        <route edges="41.0.00 40.0.00 17.0.00" />
    </vehicle>
    <vehicle id="15" depart="150.00" type="v_normal0">
        <route edges="39.0.00 31.0.00 28.0.00" />
    </vehicle>
    <vehicle id="16" depart="160.00" type="v_normal0">
        <route edges="0.0.00 -26.0.00 -21.0.00 40.0.00 -1.0.00 49.0.00 7.0.00" />
    </vehicle>
    <vehicle id="17" depart="170.00" type="v_normal4">
        <route edges="-45.0.00 -4.0.00 -5.0.00 -2.0.00 -3.0.00 10.0.00" />
    </vehicle>
    <vehicle id="18" depart="180.00" type="v_normal3">
        <route edges="40.0.00 0.0.00 39.0.00 -48.0.00 19.0.00" />
    </vehicle>
    <vehicle id="19" depart="190.00" type="v_normal2">
        <route edges="42.0.00 41.0.00 21.0.00 -29.0.00 25.0.00 15.0.00 13.0.00" />
    </vehicle>
    <vehicle id="20" depart="200.00" type="v_normal3">
        <route edges="25.0.00 -6.0.00 -7.0.00 -8.0.00 -9.0.00 -10.0.00 -11.0.00" />
    </vehicle>
    <vehicle id="21" depart="210.00" type="v_normal0">
        <route edges="-29.0.00 39.0.00 31.0.00 28.0.00 27.0.00 -38.0.00" />
    </vehicle>
    <vehicle id="22" depart="220.00" type="v_normal0">
        <route edges="-16.0.00 39.0.00 31.0.00 -29.0.00" />
    </vehicle>
    <vehicle id="23" depart="230.00" type="v_normal0">
        <route edges="-19.0.00 48.0.00 -32.0.00 15.0.00 13.0.00 -36.0.00" />
    </vehicle>
    <vehicle id="24" depart="240.00" type="v_normal4">
        <route edges="2.0.00 -50.0.00 -23.0.00 -43.0.00 -44.0.00" />
    </vehicle>
    <vehicle id="25" depart="250.00" type="v_normal4">
        <route edges="-44.0.00 8.0.00 7.0.00 6.0.00 15.0.00 13.0.00 35.0.00 -27.0.00" />
    </vehicle>
    <vehicle id="26" depart="260.00" type="v_normal2">
        <route edges="-32.0.00 -16.0.00 -0.0.00 -1.0.00 49.0.00" />
    </vehicle>
    <vehicle id="27" depart="270.00" type="v_normal0">
        <route edges="20.0.00 48.0.00 -39.0.00 -0.0.00 17.0.00" />
    </vehicle>
    <vehicle id="28" depart="280.00" type="v_normal3">
        <route edges="-23.0.00 42.0.00 41.0.00 21.0.00 28.0.00" />
    </vehicle>
    <vehicle id="29" depart="290.00" type="v_normal4">
        <route edges="-23.0.00 -43.0.00 -44.0.00 -45.0.00" />
    </vehicle>
    <vehicle id="30" depart="300.00" type="v_normal4">
        <route edges="9.0.00 8.0.00 7.0.00 6.0.00 15.0.00 13.0.00 35.0.00 -27.0.00 20.0.00" />
    </vehicle>
    <vehicle id="31" depart="310.00" type="v_normal4">
        <route edges="10.0.00 9.0.00 44.0.00 43.0.00 23.0.00" />
    </vehicle>
    <vehicle id="32" depart="320.00" type="v_normal2">
        <route edges="41.0.00 21.0.00 -29.0.00 25.0.00 15.0.00 13.0.00 35.0.00" />
    </vehicle>
    <vehicle id="33" depart="330.00" type="v_normal3">
        <route edges="-29.0.00 -0.0.00 -1.0.00 -2.0.00 -44.0.00 -9.0.00 -10.0.00" />
    </vehicle>
    <vehicle id="34" depart="340.00" type="v_normal2">
        <route edges="-4.0.00 -5.0.00 1.0.00 0.0.00 39.0.00 -32.0.00" />
    </vehicle>
    <vehicle id="35" depart="350.00" type="v_normal1">
        <route edges="-27.0.00 -28.0.00 -21.0.00 -22.0.00 51.0.00" />
    </vehicle>
    <vehicle id="36" depart="360.00" type="v_normal1">
        <route edges="44.0.00 -3.0.00 10.0.00 9.0.00 -45.0.00 -4.0.00" />
    </vehicle>
    <vehicle id="37" depart="370.00" type="v_normal0">
        <route edges="21.0.00 -29.0.00 -0.0.00 -1.0.00 49.0.00 4.0.00 -46.0.00" />
    </vehicle>
    <vehicle id="38" depart="380.00" type="v_normal4">
        <route edges="48.0.00 31.0.00 -21.0.00 -41.0.00 -51.0.00" />
    </vehicle>
    <vehicle id="39" depart="390.00" type="v_normal4">
        <route edges="-32.0.00 -6.0.00 -7.0.00 -5.0.00 -2.0.00 -3.0.00" />
    </vehicle>
    <vehicle id="40" depart="400.00" type="v_normal0">
        <route edges="10.0.00 9.0.00 44.0.00 2.0.00 1.0.00 0.0.00 39.0.00 -32.0.00" />
    </vehicle>
    <vehicle id="41" depart="410.00" type="v_normal0">
        <route edges="13.0.00 35.0.00 -27.0.00 -28.0.00 -29.0.00 -0.0.00 17.0.00 46.0.00 45.0.00" />
    </vehicle>
    <vehicle id="42" depart="420.00" type="v_normal3">
        <route edges="-46.0.00 6.0.00 33.0.00 -48.0.00 -20.0.00 -28.0.00" />
    </vehicle>
    <vehicle id="43" depart="430.00" type="v_normal4">
        <route edges="9.0.00 -45.0.00 -4.0.00 -8.0.00" />
    </vehicle>
    <vehicle id="44" depart="440.00" type="v_normal4">
        <route edges="-18.0.00 -22.0.00 -52.0.00 -2.0.00 -3.0.00 -11.0.00" />
    </vehicle>
    <vehicle id="45" depart="450.00" type="v_normal3">
        <route edges="-19.0.00 48.0.00 -32.0.00 -6.0.00 -7.0.00 -8.0.00 44.0.00 2.0.00" />
    </vehicle>
    <vehicle id="46" depart="460.00" type="v_normal2">
        <route edges="37.0.00 -13.0.00 -14.0.00 33.0.00 -48.0.00" />
    </vehicle>
    <vehicle id="47" depart="470.00" type="v_normal0">
        <route edges="-14.0.00 -6.0.00 -7.0.00 -8.0.00 -45.0.00" />
    </vehicle>
    <vehicle id="48" depart="480.00" type="v_normal1">
        <route edges="9.0.00 44.0.00 2.0.00 1.0.00 0.0.00" />
    </vehicle>
    <vehicle id="49" depart="490.00" type="v_normal0">
        <route edges="7.0.00 -47.0.00 -1.0.00 -2.0.00 43.0.00 42.0.00" />
    </vehicle>
    <vehicle id="50" depart="500.00" type="v_normal0">
        <route edges="-0.0.00 -18.0.00 21.0.00 28.0.00 27.0.00" />
    </vehicle>
    <vehicle id="51" depart="510.00" type="v_normal4">
        <route edges="23.0.00 -52.0.00 1.0.00 0.0.00" />
    </vehicle>
    <vehicle id="52" depart="520.00" type="v_normal1">
        <route edges="-32.0.00 15.0.00 13.0.00 35.0.00 -27.0.00 20.0.00" />
    </vehicle>
    <vehicle id="53" depart="530.00" type="v_normal1">
        <route edges="-19.0.00 48.0.00 -32.0.00 -6.0.00 -7.0.00 -5.0.00" />
    </vehicle>
    <vehicle id="54" depart="540.00" type="v_normal3">
        <route edges="-51.0.00 -52.0.00 49.0.00 7.0.00 6.0.00" />
    </vehicle>
    <vehicle id="55" depart="550.00" type="v_normal3">
        <route edges="44.0.00 2.0.00 1.0.00 0.0.00 39.0.00 -32.0.00" />
    </vehicle>
    <vehicle id="56" depart="560.00" type="v_normal1">
        <route edges="-8.0.00 44.0.00 43.0.00 -24.0.00" />
    </vehicle>
    <vehicle id="57" depart="570.00" type="v_normal3">
        <route edges="48.0.00 -39.0.00 -0.0.00 -1.0.00 -2.0.00 43.0.00" />
    </vehicle>
    <vehicle id="58" depart="580.00" type="v_normal0">
        <route edges="-38.0.00 -36.0.00 -27.0.00 20.0.00" />
    </vehicle>
    <vehicle id="59" depart="590.00" type="v_normal1">
        <route edges="17.0.00 6.0.00 -16.0.00 -26.0.00 -21.0.00 -22.0.00" />
    </vehicle>
    <vehicle id="60" depart="600.00" type="v_normal3">
        <route edges="33.0.00 31.0.00 -21.0.00 -22.0.00 -52.0.00 1.0.00" />
    </vehicle>
    <vehicle id="61" depart="610.00" type="v_normal1">
        <route edges="35.0.00 -27.0.00 -28.0.00 -21.0.00 40.0.00 0.0.00" />
    </vehicle>
    <vehicle id="62" depart="620.00" type="v_normal2">
        <route edges="-0.0.00 17.0.00 46.0.00 -4.0.00" />
    </vehicle>
    <vehicle id="63" depart="630.00" type="v_normal0">
        <route edges="-1.0.00 49.0.00" />
    </vehicle>
    <vehicle id="64" depart="640.00" type="v_normal1">
        <route edges="44.0.00 2.0.00 -50.0.00 22.0.00 40.0.00" />
    </vehicle>
    <vehicle id="65" depart="650.00" type="v_normal1">
        <route edges="-39.0.00 -26.0.00 28.0.00 27.0.00 -38.0.00 -13.0.00" />
    </vehicle>
    <vehicle id="66" depart="660.00" type="v_normal3">
        <route edges="44.0.00 2.0.00 -50.0.00 51.0.00" />
    </vehicle>
    <vehicle id="67" depart="670.00" type="v_normal2">
        <route edges="-16.0.00 39.0.00 -32.0.00 -6.0.00" />
    </vehicle>
    <vehicle id="68" depart="680.00" type="v_normal4">
        <route edges="-14.0.00 33.0.00 31.0.00" />
    </vehicle>
    <vehicle id="69" depart="690.00" type="v_normal1">
        <route edges="33.0.00 -48.0.00 -20.0.00" />
    </vehicle>
    <vehicle id="70" depart="700.00" type="v_normal3">
        <route edges="-6.0.00 -7.0.00 -5.0.00 1.0.00" />
    </vehicle>
    <vehicle id="71" depart="710.00" type="v_normal3">
        <route edges="-32.0.00 -6.0.00 -7.0.00 -8.0.00 44.0.00 43.0.00" />
    </vehicle>
    <vehicle id="72" depart="720.00" type="v_normal1">
        <route edges="-48.0.00 19.0.00 13.0.00 35.0.00 -27.0.00" />
    </vehicle>
    <vehicle id="73" depart="730.00" type="v_normal4">
        <route edges="1.0.00 0.0.00 -26.0.00 28.0.00" />
    </vehicle>
    <vehicle id="74" depart="740.00" type="v_normal3">
        <route edges="-27.0.00 -28.0.00 -30.0.00 -39.0.00" />
    </vehicle>
    <vehicle id="75" depart="750.00" type="v_normal4">
        <route edges="9.0.00 8.0.00 7.0.00 6.0.00 15.0.00 13.0.00 35.0.00 -27.0.00 20.0.00" />
    </vehicle>
    <vehicle id="76" depart="760.00" type="v_normal4">
        <route edges="-50.0.00 -23.0.00 -43.0.00 -44.0.00 -9.0.00" />
    </vehicle>
    <vehicle id="77" depart="770.00" type="v_normal3">
        <route edges="-2.0.00 -44.0.00 8.0.00 7.0.00 6.0.00 33.0.00 -48.0.00 -20.0.00 -28.0.00" />
    </vehicle>
    <vehicle id="78" depart="780.00" type="v_normal2">
        <route edges="-42.0.00 -43.0.00 2.0.00 1.0.00 0.0.00 25.0.00 15.0.00" />
    </vehicle>
    <vehicle id="79" depart="790.00" type="v_normal2">
        <route edges="-29.0.00 39.0.00 -48.0.00 -20.0.00 -28.0.00" />
    </vehicle>
    <vehicle id="80" depart="800.00" type="v_normal4">
        <route edges="-14.0.00 -6.0.00 -7.0.00 -8.0.00 44.0.00 2.0.00" />
    </vehicle>
    <vehicle id="81" depart="810.00" type="v_normal3">
        <route edges="-29.0.00 -0.0.00 17.0.00 46.0.00" />
    </vehicle>
    <vehicle id="82" depart="820.00" type="v_normal0">
        <route edges="42.0.00 41.0.00 21.0.00 28.0.00 27.0.00 -38.0.00 -13.0.00 -14.0.00" />
    </vehicle>
    <vehicle id="83" depart="830.00" type="v_normal4">
        <route edges="-3.0.00 -11.0.00 24.0.00 23.0.00 22.0.00" />
    </vehicle>
    <vehicle id="84" depart="840.00" type="v_normal2">
        <route edges="-28.0.00 -30.0.00 -48.0.00 -20.0.00" />
    </vehicle>
    <vehicle id="85" depart="850.00" type="v_normal4">
        <route edges="49.0.00 -8.0.00 44.0.00 43.0.00 -24.0.00 11.0.00" />
    </vehicle>
    <vehicle id="86" depart="860.00" type="v_normal3">
        <route edges="-52.0.00 49.0.00 7.0.00 6.0.00 15.0.00 13.0.00 35.0.00" />
    </vehicle>
    <vehicle id="87" depart="870.00" type="v_normal0">
        <route edges="39.0.00 -32.0.00 -16.0.00 -26.0.00" />
    </vehicle>
    <vehicle id="88" depart="880.00" type="v_normal2">
        <route edges="-18.0.00 -22.0.00 -52.0.00 -2.0.00 -44.0.00 8.0.00 -5.0.00" />
    </vehicle>
    <vehicle id="89" depart="890.00" type="v_normal0">
        <route edges="-48.0.00 -20.0.00 -28.0.00 -21.0.00 -22.0.00 -52.0.00" />
    </vehicle>
    <vehicle id="90" depart="900.00" type="v_normal0">
        <route edges="28.0.00 27.0.00 -38.0.00 -13.0.00 -14.0.00 -6.0.00 -7.0.00 -5.0.00 -50.0.00 22.0.00" />
    </vehicle>
    <vehicle id="91" depart="910.00" type="v_normal2">
        <route edges="8.0.00 7.0.00 -47.0.00 -18.0.00" />
    </vehicle>
    <vehicle id="92" depart="920.00" type="v_normal3">
        <route edges="-47.0.00 -18.0.00 -41.0.00 -42.0.00" />
    </vehicle>
    <vehicle id="93" depart="930.00" type="v_normal1">
        <route edges="42.0.00 -51.0.00 -52.0.00 -2.0.00 -3.0.00" />
    </vehicle>
    <vehicle id="94" depart="940.00" type="v_normal0">
        <route edges="-26.0.00 -21.0.00 40.0.00 -1.0.00 -50.0.00" />
    </vehicle>
    <vehicle id="95" depart="950.00" type="v_normal4">
        <route edges="-48.0.00 19.0.00 13.0.00 -36.0.00" />
    </vehicle>
    <vehicle id="96" depart="960.00" type="v_normal4">
        <route edges="-3.0.00 10.0.00 9.0.00 8.0.00 7.0.00 6.0.00 15.0.00 -19.0.00 48.0.00" />
    </vehicle>
    <vehicle id="97" depart="970.00" type="v_normal4">
        <route edges="-50.0.00 -23.0.00 42.0.00" />
    </vehicle>
    <vehicle id="98" depart="980.00" type="v_normal0">
        <route edges="10.0.00 9.0.00 44.0.00 2.0.00 1.0.00 0.0.00 -26.0.00 28.0.00 27.0.00 -38.0.00 -13.0.00" />
    </vehicle>
    <vehicle id="99" depart="990.00" type="v_normal4">
        <route edges="9.0.00 44.0.00 2.0.00 -50.0.00 22.0.00 40.0.00" />
    </vehicle>
    <vehicle id="100" depart="1000.00" type="v_aggressive2">
        <route edges="7.0.00 -47.0.00 -1.0.00 49.0.00" />
    </vehicle>
    <vehicle id="101" depart="1010.00" type="v_aggressive3">
        <route edges="41.0.00 -22.0.00 -23.0.00" />
    </vehicle>
    <vehicle id="102" depart="1020.00" type="v_aggressive1">
        <route edges="-6.0.00 -47.0.00 0.0.00 39.0.00 -48.0.00 -20.0.00 -28.0.00" />
    </vehicle>
    <vehicle id="103" depart="1030.00" type="v_aggressive0">
        <route edges="-47.0.00 0.0.00 -26.0.00 28.0.00 27.0.00 -38.0.00 -13.0.00" />
    </vehicle>
    <vehicle id="104" depart="1040.00" type="v_aggressive2">
        <route edges="-45.0.00 -4.0.00 -5.0.00 -2.0.00 -44.0.00 8.0.00" />
    </vehicle>
    <vehicle id="105" depart="1050.00" type="v_aggressive4">
        <route edges="-32.0.00 15.0.00 13.0.00 35.0.00" />
    </vehicle>
    <vehicle id="106" depart="1060.00" type="v_aggressive1">
        <route edges="-51.0.00 22.0.00 21.0.00 -30.0.00 -48.0.00" />
    </vehicle>
    <vehicle id="107" depart="1070.00" type="v_aggressive1">
        <route edges="6.0.00 -16.0.00 -0.0.00 -1.0.00 -2.0.00 -3.0.00 10.0.00 9.0.00" />
    </vehicle>
    <vehicle id="108" depart="1080.00" type="v_aggressive2">
        <route edges="10.0.00 9.0.00 44.0.00 2.0.00 1.0.00 0.0.00 -26.0.00 28.0.00 27.0.00" />
    </vehicle>
    <vehicle id="109" depart="1090.00" type="v_aggressive0">
        <route edges="-22.0.00 51.0.00 41.0.00 21.0.00 28.0.00 27.0.00 -38.0.00" />
    </vehicle>
    <vehicle id="110" depart="1100.00" type="v_aggressive3">
        <route edges="7.0.00 6.0.00 15.0.00 13.0.00" />
    </vehicle>
    <vehicle id="111" depart="1110.00" type="v_aggressive4">
        <route edges="1.0.00 -18.0.00 -22.0.00 -23.0.00 -24.0.00 11.0.00 3.0.00" />
    </vehicle>
    <vehicle id="112" depart="1120.00" type="v_aggressive1">
        <route edges="-13.0.00 -14.0.00 33.0.00 -39.0.00 25.0.00 15.0.00 13.0.00" />
    </vehicle>
    <vehicle id="113" depart="1130.00" type="v_aggressive4">
        <route edges="-8.0.00 44.0.00 43.0.00 42.0.00" />
    </vehicle>
    <vehicle id="114" depart="1140.00" type="v_aggressive4">
        <route edges="-22.0.00 -52.0.00 49.0.00 7.0.00 6.0.00" />
    </vehicle>
    <vehicle id="115" depart="1150.00" type="v_aggressive4">
        <route edges="-16.0.00 -0.0.00 -1.0.00 -2.0.00 43.0.00 -24.0.00" />
    </vehicle>
    <vehicle id="116" depart="1160.00" type="v_aggressive3">
        <route edges="15.0.00 -19.0.00 48.0.00 31.0.00 -21.0.00 -41.0.00 -42.0.00 23.0.00" />
    </vehicle>
    <vehicle id="117" depart="1170.00" type="v_aggressive2">
        <route edges="-29.0.00 -0.0.00 -1.0.00 -2.0.00" />
    </vehicle>
    <vehicle id="118" depart="1180.00" type="v_aggressive3">
        <route edges="45.0.00 44.0.00 -3.0.00" />
    </vehicle>
    <vehicle id="119" depart="1190.00" type="v_aggressive4">
        <route edges="15.0.00 -19.0.00 48.0.00 -39.0.00 25.0.00 33.0.00 -48.0.00 19.0.00" />
    </vehicle>
    <vehicle id="120" depart="1200.00" type="v_aggressive4">
        <route edges="-48.0.00 19.0.00 13.0.00" />
    </vehicle>
    <vehicle id="121" depart="1210.00" type="v_aggressive1">
        <route edges="-9.0.00 -10.0.00 3.0.00 2.0.00 49.0.00" />
    </vehicle>
    <vehicle id="122" depart="1220.00" type="v_aggressive0">
        <route edges="-27.0.00 -28.0.00 -29.0.00 39.0.00 31.0.00 28.0.00 27.0.00" />
    </vehicle>
    <vehicle id="123" depart="1230.00" type="v_aggressive4">
        <route edges="-3.0.00 10.0.00 9.0.00 -45.0.00 -46.0.00" />
    </vehicle>
    <vehicle id="124" depart="1240.00" type="v_aggressive4">
        <route edges="22.0.00 21.0.00 28.0.00 27.0.00 -38.0.00" />
    </vehicle>
    <vehicle id="125" depart="1250.00" type="v_aggressive3">
        <route edges="-4.0.00 7.0.00 6.0.00 33.0.00 31.0.00" />
    </vehicle>
    <vehicle id="126" depart="1260.00" type="v_aggressive2">
        <route edges="-14.0.00 -16.0.00 -26.0.00 -21.0.00 -41.0.00 -51.0.00" />
    </vehicle>
    <vehicle id="127" depart="1270.00" type="v_aggressive1">
        <route edges="9.0.00" />
    </vehicle>
    <vehicle id="128" depart="1280.00" type="v_aggressive0">
        <route edges="-14.0.00 33.0.00 -48.0.00 -20.0.00 -28.0.00" />
    </vehicle>
    <vehicle id="129" depart="1290.00" type="v_aggressive3">
        <route edges="-32.0.00 -16.0.00 -0.0.00 -1.0.00 49.0.00" />
    </vehicle>
    <vehicle id="130" depart="1300.00" type="v_aggressive0">
        <route edges="44.0.00" />
    </vehicle>
    <vehicle id="131" depart="1310.00" type="v_aggressive1">
        <route edges="-44.0.00 8.0.00 7.0.00 -47.0.00 -18.0.00 -22.0.00" />
    </vehicle>
    <vehicle id="132" depart="1320.00" type="v_aggressive3">
        <route edges="40.0.00 0.0.00 25.0.00" />
    </vehicle>
    <vehicle id="133" depart="1330.00" type="v_aggressive0">
        <route edges="17.0.00 46.0.00 45.0.00 8.0.00" />
    </vehicle>
    <vehicle id="134" depart="1340.00" type="v_aggressive3">
        <route edges="21.0.00 -29.0.00 -0.0.00" />
    </vehicle>
    <vehicle id="135" depart="1350.00" type="v_aggressive1">
        <route edges="4.0.00 -46.0.00 6.0.00 -16.0.00 -26.0.00 28.0.00 27.0.00 -38.0.00" />
    </vehicle>
    <vehicle id="136" depart="1360.00" type="v_aggressive3">
        <route edges="22.0.00 -41.0.00 -42.0.00 23.0.00 51.0.00" />
    </vehicle>
    <vehicle id="137" depart="1370.00" type="v_aggressive3">
        <route edges="-20.0.00 -28.0.00 -29.0.00 -0.0.00 -1.0.00 -2.0.00" />
    </vehicle>
    <vehicle id="138" depart="1380.00" type="v_aggressive2">
        <route edges="-19.0.00 48.0.00 -39.0.00 -0.0.00 -1.0.00 -2.0.00 -3.0.00 10.0.00" />
    </vehicle>
    <vehicle id="139" depart="1390.00" type="v_aggressive3">
        <route edges="-32.0.00 -16.0.00 -0.0.00 17.0.00" />
    </vehicle>
    <vehicle id="140" depart="1400.00" type="v_aggressive0">
        <route edges="27.0.00 37.0.00 35.0.00 -27.0.00" />
    </vehicle>
    <vehicle id="141" depart="1410.00" type="v_aggressive4">
        <route edges="2.0.00 1.0.00 0.0.00 39.0.00 -32.0.00" />
    </vehicle>
    <vehicle id="142" depart="1420.00" type="v_aggressive0">
        <route edges="-7.0.00 -5.0.00 1.0.00 17.0.00 46.0.00" />
    </vehicle>
    <vehicle id="143" depart="1430.00" type="v_aggressive0">
        <route edges="41.0.00 -22.0.00 -52.0.00 1.0.00 -18.0.00" />
    </vehicle>
    <vehicle id="144" depart="1440.00" type="v_aggressive3">
        <route edges="-48.0.00 19.0.00 13.0.00 -36.0.00" />
    </vehicle>
    <vehicle id="145" depart="1450.00" type="v_aggressive4">
        <route edges="-0.0.00 17.0.00 6.0.00 33.0.00" />
    </vehicle>
    <vehicle id="146" depart="1460.00" type="v_aggressive1">
        <route edges="2.0.00 1.0.00 0.0.00 -26.0.00 -30.0.00" />
    </vehicle>
    <vehicle id="147" depart="1470.00" type="v_aggressive0">
        <route edges="3.0.00 43.0.00 -24.0.00 11.0.00 10.0.00" />
    </vehicle>
    <vehicle id="148" depart="1480.00" type="v_aggressive4">
        <route edges="-5.0.00 1.0.00 17.0.00 6.0.00 -16.0.00 -0.0.00" />