<?xml version="1.0" encoding="UTF-8"?>

<!-- generated on 2025-06-03 14:57:09.024860 by randomTrips.py UNKNOWN
<configuration>
    <net-file value="town05/osm.net.xml"/>
    <additional-files value="town05/park.add.xml"/>
    <output-trip-file value="town05/randtrips.trips.xml"/>
    <route-file value="town05/randtrips.rou.xml"/>
    <validate value="True"/>
    <end value="2000.0"/>
    <period value="10.0"/>
</configuration>
-->

<!-- generated on 2025-06-03 14:57:09 by Eclipse SUMO duarouter Version 1.23.1
<duarouterConfiguration xmlns:xsi="http://www.w3.org/2001/XMLSchema-instance" xsi:noNamespaceSchemaLocation="http://sumo.dlr.de/xsd/duarouterConfiguration.xsd">

    <input>
        <net-file value="town05/osm.net.xml"/>
        <additional-files value="town05/park.add.xml"/>
        <route-files value="town05/randtrips.trips.xml"/>
    </input>

    <output>
        <output-file value="town05/randtrips.trips.xml.tmp"/>
        <alternatives-output value="NUL"/>
        <write-trips value="true"/>
    </output>

    <time>
        <begin value="0"/>
        <end value="2000.0"/>
    </time>

    <report>
        <no-warnings value="true"/>
        <ignore-errors value="true"/>
        <no-step-log value="true"/>
    </report>

</duarouterConfiguration>
-->

<routes xmlns:xsi="http://www.w3.org/2001/XMLSchema-instance" xsi:noNamespaceSchemaLocation="http://sumo.dlr.de/xsd/routes_file.xsd">
    <trip id="0" depart="0.00" from="20.0.00" to="-10.0.00"/>
    <trip id="1" depart="10.00" from="-36.0.00" to="-28.0.00"/>
    <trip id="2" depart="20.00" from="28.0.00" to="23.0.00"/>
    <trip id="3" depart="30.00" from="45.0.00" to="-16.0.00"/>
    <trip id="4" depart="40.00" from="-48.0.00" to="-10.0.00"/>
    <trip id="5" depart="50.00" from="-28.0.00" to="-8.0.00"/>
    <trip id="6" depart="60.00" from="-10.0.00" to="-26.0.00"/>
    <trip id="7" depart="70.00" from="20.0.00" to="1.0.00"/>
    <trip id="8" depart="80.00" from="-28.0.00" to="15.0.00"/>
    <trip id="9" depart="90.00" from="39.0.00" to="-0.0.00"/>
    <trip id="10" depart="100.00" from="39.0.00" to="24.0.00"/>
    <trip id="11" depart="110.00" from="-42.0.00" to="-22.0.00"/>
    <trip id="12" depart="120.00" from="6.0.00" to="-41.0.00"/>
    <trip id="13" depart="130.00" from="-18.0.00" to="-18.0.00"/>
    <trip id="14" depart="140.00" from="41.0.00" to="17.0.00"/>
    <trip id="15" depart="150.00" from="39.0.00" to="28.0.00"/>
    <trip id="16" depart="160.00" from="0.0.00" to="7.0.00"/>
    <trip id="17" depart="170.00" from="-45.0.00" to="10.0.00"/>
    <trip id="18" depart="180.00" from="40.0.00" to="19.0.00"/>
    <trip id="19" depart="190.00" from="42.0.00" to="13.0.00"/>
    <trip id="20" depart="200.00" from="25.0.00" to="-11.0.00"/>
    <trip id="21" depart="210.00" from="-29.0.00" to="-38.0.00"/>
    <trip id="22" depart="220.00" from="-16.0.00" to="-29.0.00"/>
    <trip id="23" depart="230.00" from="-19.0.00" to="-36.0.00"/>
    <trip id="24" depart="240.00" from="2.0.00" to="-44.0.00"/>
    <trip id="25" depart="250.00" from="-44.0.00" to="-27.0.00"/>
    <trip id="26" depart="260.00" from="-32.0.00" to="49.0.00"/>
    <trip id="27" depart="270.00" from="20.0.00" to="17.0.00"/>
    <trip id="28" depart="280.00" from="-23.0.00" to="28.0.00"/>
    <trip id="29" depart="290.00" from="-23.0.00" to="-45.0.00"/>
    <trip id="30" depart="300.00" from="9.0.00" to="20.0.00"/>
    <trip id="31" depart="310.00" from="10.0.00" to="23.0.00"/>
    <trip id="32" depart="320.00" from="41.0.00" to="35.0.00"/>
    <trip id="33" depart="330.00" from="-29.0.00" to="-10.0.00"/>
    <trip id="34" depart="340.00" from="-4.0.00" to="-32.0.00"/>
    <trip id="35" depart="350.00" from="-27.0.00" to="51.0.00"/>
    <trip id="36" depart="360.00" from="44.0.00" to="-4.0.00"/>
    <trip id="37" depart="370.00" from="21.0.00" to="-46.0.00"/>
    <trip id="38" depart="380.00" from="48.0.00" to="-51.0.00"/>
    <trip id="39" depart="390.00" from="-32.0.00" to="-3.0.00"/>
    <trip id="40" depart="400.00" from="10.0.00" to="-32.0.00"/>
    <trip id="41" depart="410.00" from="13.0.00" to="45.0.00"/>
    <trip id="42" depart="420.00" from="-46.0.00" to="-28.0.00"/>
    <trip id="43" depart="430.00" from="9.0.00" to="-8.0.00"/>
    <trip id="44" depart="440.00" from="-18.0.00" to="-11.0.00"/>
    <trip id="45" depart="450.00" from="-19.0.00" to="2.0.00"/>
    <trip id="46" depart="460.00" from="37.0.00" to="-48.0.00"/>
    <trip id="47" depart="470.00" from="-14.0.00" to="-45.0.00"/>
    <trip id="48" depart="480.00" from="9.0.00" to="0.0.00"/>
    <trip id="49" depart="490.00" from="7.0.00" to="42.0.00"/>
    <trip id="50" depart="500.00" from="-0.0.00" to="27.0.00"/>
    <trip id="51" depart="510.00" from="23.0.00" to="0.0.00"/>
    <trip id="52" depart="520.00" from="-32.0.00" to="20.0.00"/>
    <trip id="53" depart="530.00" from="-19.0.00" to="-5.0.00"/>
    <trip id="54" depart="540.00" from="-51.0.00" to="6.0.00"/>
    <trip id="55" depart="550.00" from="44.0.00" to="-32.0.00"/>
    <trip id="56" depart="560.00" from="-8.0.00" to="-24.0.00"/>
    <trip id="57" depart="570.00" from="48.0.00" to="43.0.00"/>
    <trip id="58" depart="580.00" from="-38.0.00" to="20.0.00"/>
    <trip id="59" depart="590.00" from="17.0.00" to="-22.0.00"/>
    <trip id="60" depart="600.00" from="33.0.00" to="1.0.00"/>
    <trip id="61" depart="610.00" from="35.0.00" to="0.0.00"/>
    <trip id="62" depart="620.00" from="-0.0.00" to="-4.0.00"/>
    <trip id="63" depart="630.00" from="-1.0.00" to="49.0.00"/>
    <trip id="64" depart="640.00" from="44.0.00" to="40.0.00"/>
    <trip id="65" depart="650.00" from="-39.0.00" to="-13.0.00"/>
    <trip id="66" depart="660.00" from="44.0.00" to="51.0.00"/>
    <trip id="67" depart="670.00" from="-16.0.00" to="-6.0.00"/>
    <trip id="68" depart="680.00" from="-14.0.00" to="31.0.00"/>
    <trip id="69" depart="690.00" from="33.0.00" to="-20.0.00"/>
    <trip id="70" depart="700.00" from="-6.0.00" to="1.0.00"/>
    <trip id="71" depart="710.00" from="-32.0.00" to="43.0.00"/>
    <trip id="72" depart="720.00" from="-48.0.00" to="-27.0.00"/>
    <trip id="73" depart="730.00" from="1.0.00" to="28.0.00"/>
    <trip id="74" depart="740.00" from="-27.0.00" to="-39.0.00"/>
    <trip id="75" depart="750.00" from="9.0.00" to="20.0.00"/>
    <trip id="76" depart="760.00" from="-50.0.00" to="-9.0.00"/>
    <trip id="77" depart="770.00" from="-2.0.00" to="-28.0.00"/>
    <trip id="78" depart="780.00" from="-42.0.00" to="15.0.00"/>
    <trip id="79" depart="790.00" from="-29.0.00" to="-28.0.00"/>
    <trip id="80" depart="800.00" from="-14.0.00" to="2.0.00"/>
    <trip id="81" depart="810.00" from="-29.0.00" to="46.0.00"/>
    <trip id="82" depart="820.00" from="42.0.00" to="-14.0.00"/>
    <trip id="83" depart="830.00" from="-3.0.00" to="22.0.00"/>
    <trip id="84" depart="840.00" from="-28.0.00" to="-20.0.00"/>
    <trip id="85" depart="850.00" from="49.0.00" to="11.0.00"/>
    <trip id="86" depart="860.00" from="-52.0.00" to="35.0.00"/>
    <trip id="87" depart="870.00" from="39.0.00" to="-26.0.00"/>
    <trip id="88" depart="880.00" from="-18.0.00" to="-5.0.00"/>
    <trip id="89" depart="890.00" from="-48.0.00" to="-52.0.00"/>
    <trip id="90" depart="900.00" from="28.0.00" to="22.0.00"/>
    <trip id="91" depart="910.00" from="8.0.00" to="-18.0.00"/>
    <trip id="92" depart="920.00" from="-47.0.00" to="-42.0.00"/>
    <trip id="93" depart="930.00" from="42.0.00" to="-3.0.00"/>
    <trip id="94" depart="940.00" from="-26.0.00" to="-50.0.00"/>
    <trip id="95" depart="950.00" from="-48.0.00" to="-36.0.00"/>
    <trip id="96" depart="960.00" from="-3.0.00" to="48.0.00"/>
    <trip id="97" depart="970.00" from="-50.0.00" to="42.0.00"/>
    <trip id="98" depart="980.00" from="10.0.00" to="-13.0.00"/>
    <trip id="99" depart="990.00" from="9.0.00" to="40.0.00"/>
    <trip id="100" depart="1000.00" from="7.0.00" to="49.0.00"/>
    <trip id="101" depart="1010.00" from="41.0.00" to="-23.0.00"/>
    <trip id="102" depart="1020.00" from="-6.0.00" to="-28.0.00"/>
    <trip id="103" depart="1030.00" from="-47.0.00" to="-13.0.00"/>
    <trip id="104" depart="1040.00" from="-45.0.00" to="8.0.00"/>
    <trip id="105" depart="1050.00" from="-32.0.00" to="35.0.00"/>
    <trip id="106" depart="1060.00" from="-51.0.00" to="-48.0.00"/>
    <trip id="107" depart="1070.00" from="6.0.00" to="9.0.00"/>
    <trip id="108" depart="1080.00" from="10.0.00" to="27.0.00"/>
    <trip id="109" depart="1090.00" from="-22.0.00" to="-38.0.00"/>
    <trip id="110" depart="1100.00" from="7.0.00" to="13.0.00"/>
    <trip id="111" depart="1110.00" from="1.0.00" to="3.0.00"/>
    <trip id="112" depart="1120.00" from="-13.0.00" to="13.0.00"/>
    <trip id="113" depart="1130.00" from="-8.0.00" to="42.0.00"/>
    <trip id="114" depart="1140.00" from="-22.0.00" to="6.0.00"/>
    <trip id="115" depart="1150.00" from="-16.0.00" to="-24.0.00"/>
    <trip id="116" depart="1160.00" from="15.0.00" to="23.0.00"/>
    <trip id="117" depart="1170.00" from="-29.0.00" to="-2.0.00"/>
    <trip id="118" depart="1180.00" from="45.0.00" to="-3.0.00"/>
    <trip id="119" depart="1190.00" from="15.0.00" to="19.0.00"/>
    <trip id="120" depart="1200.00" from="-48.0.00" to="13.0.00"/>
    <trip id="121" depart="1210.00" from="-9.0.00" to="49.0.00"/>
    <trip id="122" depart="1220.00" from="-27.0.00" to="27.0.00"/>
    <trip id="123" depart="1230.00" from="-3.0.00" to="-46.0.00"/>
    <trip id="124" depart="1240.00" from="22.0.00" to="-38.0.00"/>
    <trip id="125" depart="1250.00" from="-4.0.00" to="31.0.00"/>
    <trip id="126" depart="1260.00" from="-14.0.00" to="-51.0.00"/>
    <trip id="127" depart="1270.00" from="9.0.00" to="9.0.00"/>
    <trip id="128" depart="1280.00" from="-14.0.00" to="-28.0.00"/>
    <trip id="129" depart="1290.00" from="-32.0.00" to="49.0.00"/>
    <trip id="130" depart="1300.00" from="44.0.00" to="44.0.00"/>
    <trip id="131" depart="1310.00" from="-44.0.00" to="-22.0.00"/>
    <trip id="132" depart="1320.00" from="40.0.00" to="25.0.00"/>
    <trip id="133" depart="1330.00" from="17.0.00" to="8.0.00"/>
    <trip id="134" depart="1340.00" from="21.0.00" to="-0.0.00"/>
    <trip id="135" depart="1350.00" from="4.0.00" to="-38.0.00"/>
    <trip id="136" depart="1360.00" from="22.0.00" to="51.0.00"/>
    <trip id="137" depart="1370.00" from="-20.0.00" to="-2.0.00"/>
    <trip id="138" depart="1380.00" from="-19.0.00" to="10.0.00"/>
    <trip id="139" depart="1390.00" from="-32.0.00" to="17.0.00"/>
    <trip id="140" depart="1400.00" from="27.0.00" to="-27.0.00"/>
    <trip id="141" depart="1410.00" from="2.0.00" to="-32.0.00"/>
    <trip id="142" depart="1420.00" from="-7.0.00" to="46.0.00"/>
    <trip id="143" depart="1430.00" from="41.0.00" to="-18.0.00"/>
    <trip id="144" depart="1440.00" from="-48.0.00" to="-36.0.00"/>
    <trip id="145" depart="1450.00" from="-0.0.00" to="33.0.00"/>
    <trip id="146" depart="1460.00" from="2.0.00" to="-30.0.00"/>
    <trip id="147" depart="1470.00" from="3.0.00" to="10.0.00"/>
    <trip id="148" depart="1480.00" from="-5.0.00" to="-0.0.00"/>
    <trip id="149" depart="1490.00" from="-16.0.00" to="44.0.00"/>
    <trip id="150" depart="1500.00" from="46.0.00" to="1.0.00"/>
    <trip id="151" depart="1510.00" from="40.0.00" to="13.0.00"/>
    <trip id="152" depart="1520.00" from="-21.0.00" to="-20.0.00"/>
    <trip id="153" depart="1530.00" from="-39.0.00" to="45.0.00"/>
    <trip id="154" depart="1540.00" from="37.0.00" to="42.0.00"/>
    <trip id="155" depart="1550.00" from="45.0.00" to="-27.0.00"/>
    <trip id="156" depart="1560.00" from="-3.0.00" to="-19.0.00"/>
    <trip id="157" depart="1570.00" from="35.0.00" to="44.0.00"/>
    <trip id="158" depart="1580.00" from="-47.0.00" to="19.0.00"/>
    <trip id="159" depart="1590.00" from="-22.0.00" to="49.0.00"/>
    <trip id="160" depart="1600.00" from="43.0.00" to="8.0.00"/>
    <trip id="161" depart="1610.00" from="39.0.00" to="44.0.00"/>
    <trip id="162" depart="1620.00" from="-1.0.00" to="28.0.00"/>
    <trip id="163" depart="1630.00" from="-41.0.00" to="49.0.00"/>
    <trip id="164" depart="1640.00" from="39.0.00" to="43.0.00"/>
    <trip id="165" depart="1650.00" from="39.0.00" to="-32.0.00"/>
    <trip id="166" depart="1660.00" from="35.0.00" to="-19.0.00"/>
    <trip id="167" depart="1670.00" from="43.0.00" to="42.0.00"/>
    <trip id="168" depart="1680.00" from="-28.0.00" to="4.0.00"/>
    <trip id="169" depart="1690.00" from="-51.0.00" to="-39.0.00"/>
    <trip id="170" depart="1700.00" from="37.0.00" to="-29.0.00"/>
    <trip id="171" depart="1710.00" from="-1.0.00" to="-26.0.00"/>
    <trip id="172" depart="1720.00" from="-41.0.00" to="43.0.00"/>
    <trip id="173" depart="1730.00" from="7.0.00" to="-36.0.00"/>
    <trip id="174" depart="1740.00" from="20.0.00" to="-46.0.00"/>
    <trip id="175" depart="1750.00" from="8.0.00" to="0.0.00"/>
    <trip id="176" depart="1760.00" from="51.0.00" to="-2.0.00"/>
    <trip id="177" depart="1770.00" from="7.0.00" to="-24.0.00"/>
    <trip id="178" depart="1780.00" from="7.0.00" to="-32.0.00"/>
    <trip id="179" depart="1790.00" from="-19.0.00" to="-5.0.00"/>
    <trip id="180" depart="1800.00" from="28.0.00" to="-4.0.00"/>
    <trip id="181" depart="1810.00" from="17.0.00" to="-8.0.00"/>
    <trip id="182" depart="1820.00" from="-45.0.00" to="13.0.00"/>
    <trip id="183" depart="1830.00" from="-30.0.00" to="25.0.00"/>
    <trip id="184" depart="1840.00" from="-0.0.00" to="49.0.00"/>
    <trip id="185" depart="1850.00" from="1.0.00" to="27.0.00"/>
    <trip id="186" depart="1860.00" from="3.0.00" to="22.0.00"/>
    <trip id="187" depart="1870.00" from="-44.0.00" to="-14.0.00"/>
    <trip id="188" depart="1880.00" from="22.0.00" to="-41.0.00"/>
    <trip id="189" depart="1890.00" from="-4.0.00" to="41.0.00"/>
    <trip id="190" depart="1900.00" from="27.0.00" to="-39.0.00"/>
    <trip id="191" depart="1910.00" from="-39.0.00" to="-47.0.00"/>
    <trip id="192" depart="1920.00" from="-47.0.00" to="-38.0.00"/>
    <trip id="193" depart="1930.00" from="-20.0.00" to="-48.0.00"/>
    <trip id="194" depart="1940.00" from="51.0.00" to="23.0.00"/>
    <trip id="195" depart="1950.00" from="46.0.00" to="19.0.00"/>
    <trip id="196" depart="1960.00" from="-39.0.00" to="1.0.00"/>
    <trip id="197" depart="1970.00" from="-0.0.00" to="-36.0.00"/>
    <trip id="198" depart="1980.00" from="-5.0.00" to="13.0.00"/>
    <trip id="199" depart="1990.00" from="21.0.00" to="-52.0.00"/>
</routes>
