<routes xmlns:xsi="http://www.w3.org/2001/XMLSchema-instance" xsi:noNamespaceSchemaLocation="http://sumo.dlr.de/xsd/routes_file.xsd">

<!-- BEGIN - LLM Generated trips -->

<!-- Vehicles -->
<vTypeDistribution id="aggressive">
	<vType id="v_aggressive0" minGap="0.65" accel="2.61" decel="2.01" startupDelay="0.77" sigma="0.55" tau="1.52" maxSpeed="131.53" speedFactor="1.53" lcStrategic="2.58" lcCooperative="0.16" lcSpeedGain="2.61" lcKeepRight="1.23" lcOvertakeRight="0.51" lcSpeedGainLookahead="2.66" lcOvertakeDeltaSpeedFactor="0.91" lcPushy="0.73" lcAssertive="1.75" lcImpatience="1.0" lcTimeToImpatience="1.66" lcLaneDiscipline="0.3" lcSigma="0.5" lcAccelLat="2.52" probability="0.18088338553108196">
		<param key="device.rerouting.probability" value="1.0"/>
		<param key="device.rerouting.adaptation-steps" value="18"/>
		<param key="device.rerouting.adaptation-interval" value="10"/>
	</vType>
	<vType id="v_aggressive1" minGap="0.82" accel="2.57" decel="1.93" startupDelay="0.76" sigma="0.34" tau="1.42" maxSpeed="125.57" speedFactor="1.36" lcStrategic="2.56" lcCooperative="0.16" lcSpeedGain="2.47" lcKeepRight="1.2" lcOvertakeRight="0.51" lcSpeedGainLookahead="2.48" lcOvertakeDeltaSpeedFactor="0.72" lcPushy="0.7" lcAssertive="2.04" lcImpatience="1.0" lcTimeToImpatience="1.69" lcLaneDiscipline="0.37" lcSigma="0.49" lcAccelLat="2.75" probability="0.31481984899716786">
		<param key="device.rerouting.probability" value="1.0"/>
		<param key="device.rerouting.adaptation-steps" value="18"/>
		<param key="device.rerouting.adaptation-interval" value="10"/>
	</vType>
	<vType id="v_aggressive2" minGap="0.79" accel="2.69" decel="2.56" startupDelay="0.73" sigma="0.49" tau="1.56" maxSpeed="138.91" speedFactor="1.47" lcStrategic="2.5" lcCooperative="0.07" lcSpeedGain="2.41" lcKeepRight="1.25" lcOvertakeRight="0.59" lcSpeedGainLookahead="2.08" lcOvertakeDeltaSpeedFactor="1.0" lcPushy="0.77" lcAssertive="1.97" lcImpatience="1.0" lcTimeToImpatience="1.63" lcLaneDiscipline="0.35" lcSigma="0.5" lcAccelLat="2.89" probability="0.3520683669878516">
		<param key="device.rerouting.probability" value="1.0"/>
		<param key="device.rerouting.adaptation-steps" value="18"/>
		<param key="device.rerouting.adaptation-interval" value="10"/>
	</vType>
	<vType id="v_aggressive3" minGap="0.56" accel="2.28" decel="2.91" startupDelay="0.82" sigma="0.47" tau="1.29" maxSpeed="123.81" speedFactor="1.26" lcStrategic="2.37" lcCooperative="0.07" lcSpeedGain="2.56" lcKeepRight="1.33" lcOvertakeRight="0.5" lcSpeedGainLookahead="2.68" lcOvertakeDeltaSpeedFactor="1.0" lcPushy="0.61" lcAssertive="2.38" lcImpatience="1.0" lcTimeToImpatience="1.56" lcLaneDiscipline="0.5" lcSigma="0.56" lcAccelLat="2.57" probability="0.06381620307254267">
		<param key="device.rerouting.probability" value="1.0"/>
		<param key="device.rerouting.adaptation-steps" value="18"/>
		<param key="device.rerouting.adaptation-interval" value="10"/>
	</vType>
	<vType id="v_aggressive4" minGap="0.9" accel="2.52" decel="2.46" startupDelay="0.66" sigma="0.42" tau="1.0" maxSpeed="135.99" speedFactor="1.29" lcStrategic="2.71" lcCooperative="0.16" lcSpeedGain="2.66" lcKeepRight="1.35" lcOvertakeRight="0.48" lcSpeedGainLookahead="2.0" lcOvertakeDeltaSpeedFactor="1.0" lcPushy="0.67" lcAssertive="1.79" lcImpatience="1.0" lcTimeToImpatience="1.84" lcLaneDiscipline="0.39" lcSigma="0.48" lcAccelLat="2.88" probability="0.0884121954113558">
		<param key="device.rerouting.probability" value="1.0"/>
		<param key="device.rerouting.adaptation-steps" value="18"/>
		<param key="device.rerouting.adaptation-interval" value="10"/>
	</vType>
</vTypeDistribution>
<vTypeDistribution id="normal">
	<vType id="v_normal0" minGap="1.27" accel="2.17" decel="2.23" startupDelay="1.41" sigma="0.25" tau="2.59" maxSpeed="111.02" speedFactor="1.05" lcStrategic="1.86" lcCooperative="0.71" lcSpeedGain="2.19" lcKeepRight="0.85" lcOvertakeRight="0.1" lcSpeedGainLookahead="1.68" lcOvertakeDeltaSpeedFactor="0.75" lcPushy="0.1" lcAssertive="1.2" lcImpatience="0.98" lcTimeToImpatience="2.47" lcLaneDiscipline="0.7" lcSigma="0.34" lcAccelLat="2.03" probability="0.2203972082154149">
		<param key="device.rerouting.probability" value="1.0"/>
		<param key="device.rerouting.adaptation-steps" value="18"/>
		<param key="device.rerouting.adaptation-interval" value="10"/>
	</vType>
	<vType id="v_normal1" minGap="1.25" accel="1.82" decel="2.24" startupDelay="1.17" sigma="0.2" tau="2.48" maxSpeed="105.62" speedFactor="1.06" lcStrategic="1.49" lcCooperative="0.74" lcSpeedGain="1.88" lcKeepRight="1.04" lcOvertakeRight="0.05" lcSpeedGainLookahead="1.99" lcOvertakeDeltaSpeedFactor="0.54" lcPushy="0.12" lcAssertive="1.44" lcImpatience="1.0" lcTimeToImpatience="2.33" lcLaneDiscipline="0.71" lcSigma="0.28" lcAccelLat="1.89" probability="0.34552161995391706">
		<param key="device.rerouting.probability" value="1.0"/>
		<param key="device.rerouting.adaptation-steps" value="18"/>
		<param key="device.rerouting.adaptation-interval" value="10"/>
	</vType>
	<vType id="v_normal2" minGap="1.24" accel="1.88" decel="2.27" startupDelay="1.28" sigma="0.17" tau="2.75" maxSpeed="107.03" speedFactor="1.16" lcStrategic="1.84" lcCooperative="0.74" lcSpeedGain="2.73" lcKeepRight="0.86" lcOvertakeRight="0.16" lcSpeedGainLookahead="2.32" lcOvertakeDeltaSpeedFactor="0.69" lcPushy="0.1" lcAssertive="1.3" lcImpatience="1.0" lcTimeToImpatience="2.33" lcLaneDiscipline="0.65" lcSigma="0.22" lcAccelLat="1.96" probability="0.15972019204249796">
		<param key="device.rerouting.probability" value="1.0"/>
		<param key="device.rerouting.adaptation-steps" value="18"/>
		<param key="device.rerouting.adaptation-interval" value="10"/>
	</vType>
	<vType id="v_normal3" minGap="1.21" accel="1.9" decel="2.26" startupDelay="1.3" sigma="0.16" tau="2.39" maxSpeed="110.11" speedFactor="1.06" lcStrategic="1.92" lcCooperative="0.64" lcSpeedGain="2.49" lcKeepRight="1.06" lcOvertakeRight="0.15" lcSpeedGainLookahead="2.07" lcOvertakeDeltaSpeedFactor="0.71" lcPushy="0.15" lcAssertive="1.47" lcImpatience="0.9" lcTimeToImpatience="2.35" lcLaneDiscipline="0.62" lcSigma="0.36" lcAccelLat="1.54" probability="0.180170076086627">
		<param key="device.rerouting.probability" value="1.0"/>
		<param key="device.rerouting.adaptation-steps" value="18"/>
		<param key="device.rerouting.adaptation-interval" value="10"/>
	</vType>
	<vType id="v_normal4" minGap="1.03" accel="2.08" decel="2.2" startupDelay="1.34" sigma="0.17" tau="2.38" maxSpeed="105.53" speedFactor="1.25" lcStrategic="1.86" lcCooperative="0.65" lcSpeedGain="1.8" lcKeepRight="0.93" lcOvertakeRight="0.03" lcSpeedGainLookahead="2.28" lcOvertakeDeltaSpeedFactor="0.65" lcPushy="0.12" lcAssertive="1.66" lcImpatience="1.0" lcTimeToImpatience="2.28" lcLaneDiscipline="0.73" lcSigma="0.34" lcAccelLat="1.61" probability="0.09419090370154308">
		<param key="device.rerouting.probability" value="1.0"/>
		<param key="device.rerouting.adaptation-steps" value="18"/>
		<param key="device.rerouting.adaptation-interval" value="10"/>
	</vType>
</vTypeDistribution>
<vTypeDistribution id="cautious">
	<vType id="v_cautious0" minGap="1.72" accel="1.24" decel="1.3" startupDelay="1.67" sigma="0.89" tau="3.33" maxSpeed="83.55" speedFactor="0.9" lcStrategic="1.42" lcCooperative="0.93" lcSpeedGain="1.4" lcKeepRight="0.56" lcOvertakeRight="0.11" lcSpeedGainLookahead="1.48" lcOvertakeDeltaSpeedFactor="0.32" lcPushy="0.08" lcAssertive="1.01" lcImpatience="0.27" lcTimeToImpatience="3.48" lcLaneDiscipline="0.85" lcSigma="0.0" lcAccelLat="1.38" probability="0.35835921304930496">
		<param key="device.rerouting.probability" value="1.0"/>
		<param key="device.rerouting.adaptation-steps" value="18"/>
		<param key="device.rerouting.adaptation-interval" value="10"/>
	</vType>
	<vType id="v_cautious1" minGap="1.86" accel="1.1" decel="1.32" startupDelay="1.89" sigma="0.74" tau="4.09" maxSpeed="93.39" speedFactor="0.91" lcStrategic="1.34" lcCooperative="0.95" lcSpeedGain="1.53" lcKeepRight="0.74" lcOvertakeRight="0.1" lcSpeedGainLookahead="1.56" lcOvertakeDeltaSpeedFactor="0.32" lcPushy="0.08" lcAssertive="1.0" lcImpatience="0.16" lcTimeToImpatience="4.02" lcLaneDiscipline="0.83" lcSigma="0.01" lcAccelLat="1.22" probability="0.07807152442306863">
		<param key="device.rerouting.probability" value="1.0"/>
		<param key="device.rerouting.adaptation-steps" value="18"/>
		<param key="device.rerouting.adaptation-interval" value="10"/>
	</vType>
	<vType id="v_cautious2" minGap="1.78" accel="1.18" decel="1.46" startupDelay="1.84" sigma="0.72" tau="3.63" maxSpeed="97.39" speedFactor="0.89" lcStrategic="1.56" lcCooperative="0.87" lcSpeedGain="1.28" lcKeepRight="0.75" lcOvertakeRight="0.11" lcSpeedGainLookahead="1.39" lcOvertakeDeltaSpeedFactor="0.37" lcPushy="0.21" lcAssertive="1.0" lcImpatience="0.61" lcTimeToImpatience="3.48" lcLaneDiscipline="0.94" lcSigma="0.07" lcAccelLat="1.15" probability="0.270902848824137">
		<param key="device.rerouting.probability" value="1.0"/>
		<param key="device.rerouting.adaptation-steps" value="18"/>
		<param key="device.rerouting.adaptation-interval" value="10"/>
	</vType>
	<vType id="v_cautious3" minGap="1.87" accel="1.37" decel="1.33" startupDelay="1.75" sigma="0.86" tau="3.47" maxSpeed="96.11" speedFactor="0.85" lcStrategic="1.34" lcCooperative="0.87" lcSpeedGain="1.24" lcKeepRight="0.67" lcOvertakeRight="0.09" lcSpeedGainLookahead="1.29" lcOvertakeDeltaSpeedFactor="0.29" lcPushy="0.14" lcAssertive="1.0" lcImpatience="0.27" lcTimeToImpatience="3.39" lcLaneDiscipline="0.94" lcSigma="0.19" lcAccelLat="1.12" probability="0.18899240746280213">
		<param key="device.rerouting.probability" value="1.0"/>
		<param key="device.rerouting.adaptation-steps" value="18"/>
		<param key="device.rerouting.adaptation-interval" value="10"/>
	</vType>
	<vType id="v_cautious4" minGap="1.66" accel="1.44" decel="1.27" startupDelay="1.88" sigma="0.66" tau="3.96" maxSpeed="96.08" speedFactor="0.91" lcStrategic="1.26" lcCooperative="0.87" lcSpeedGain="1.68" lcKeepRight="0.74" lcOvertakeRight="0.1" lcSpeedGainLookahead="1.4" lcOvertakeDeltaSpeedFactor="0.27" lcPushy="0.07" lcAssertive="1.0" lcImpatience="0.35" lcTimeToImpatience="3.21" lcLaneDiscipline="0.93" lcSigma="0.07" lcAccelLat="1.11" probability="0.10367400624068725">
		<param key="device.rerouting.probability" value="1.0"/>
		<param key="device.rerouting.adaptation-steps" value="18"/>
		<param key="device.rerouting.adaptation-interval" value="10"/>
	</vType>
</vTypeDistribution>
<vTypeDistribution id="super_aggressive">
	<vType id="v_super_aggressive0" minGap="0.32" accel="3.95" decel="4.15" startupDelay="0.28" sigma="0.93" tau="1.0" maxSpeed="166.9" speedFactor="1.95" lcStrategic="4.57" lcCooperative="0.0" lcSpeedGain="4.55" lcKeepRight="1.75" lcOvertakeRight="0.64" lcSpeedGainLookahead="2.73" lcOvertakeDeltaSpeedFactor="1.0" lcPushy="0.96" lcAssertive="2.85" lcImpatience="1.0" lcTimeToImpatience="0.85" lcLaneDiscipline="0.69" lcSigma="0.68" lcAccelLat="4.38" probability="0.17273180637438293">
		<param key="device.rerouting.probability" value="1.0"/>
		<param key="device.rerouting.adaptation-steps" value="18"/>
		<param key="device.rerouting.adaptation-interval" value="10"/>
	</vType>
	<vType id="v_super_aggressive1" minGap="0.49" accel="4.18" decel="3.89" startupDelay="0.36" sigma="0.86" tau="1.0" maxSpeed="167.58" speedFactor="1.93" lcStrategic="3.47" lcCooperative="0.1" lcSpeedGain="3.84" lcKeepRight="1.83" lcOvertakeRight="0.78" lcSpeedGainLookahead="4.11" lcOvertakeDeltaSpeedFactor="1.0" lcPushy="0.88" lcAssertive="3.2" lcImpatience="1.0" lcTimeToImpatience="0.93" lcLaneDiscipline="0.69" lcSigma="0.66" lcAccelLat="4.8" probability="0.16055681099913507">
		<param key="device.rerouting.probability" value="1.0"/>
		<param key="device.rerouting.adaptation-steps" value="18"/>
		<param key="device.rerouting.adaptation-interval" value="10"/>
	</vType>
	<vType id="v_super_aggressive2" minGap="0.26" accel="4.28" decel="4.03" startupDelay="0.26" sigma="0.84" tau="1.0" maxSpeed="171.45" speedFactor="1.93" lcStrategic="4.08" lcCooperative="0.18" lcSpeedGain="4.29" lcKeepRight="1.67" lcOvertakeRight="0.74" lcSpeedGainLookahead="4.63" lcOvertakeDeltaSpeedFactor="1.0" lcPushy="0.91" lcAssertive="3.08" lcImpatience="1.0" lcTimeToImpatience="0.54" lcLaneDiscipline="0.63" lcSigma="0.78" lcAccelLat="4.47" probability="0.23418464881709214">
		<param key="device.rerouting.probability" value="1.0"/>
		<param key="device.rerouting.adaptation-steps" value="18"/>
		<param key="device.rerouting.adaptation-interval" value="10"/>
	</vType>
	<vType id="v_super_aggressive3" minGap="0.21" accel="4.34" decel="3.92" startupDelay="0.37" sigma="0.84" tau="1.0" maxSpeed="171.0" speedFactor="1.92" lcStrategic="4.52" lcCooperative="0.13" lcSpeedGain="4.04" lcKeepRight="1.55" lcOvertakeRight="0.73" lcSpeedGainLookahead="3.98" lcOvertakeDeltaSpeedFactor="1.0" lcPushy="0.85" lcAssertive="3.11" lcImpatience="1.0" lcTimeToImpatience="0.64" lcLaneDiscipline="0.57" lcSigma="0.68" lcAccelLat="4.37" probability="0.23894607136493415">
		<param key="device.rerouting.probability" value="1.0"/>
		<param key="device.rerouting.adaptation-steps" value="18"/>
		<param key="device.rerouting.adaptation-interval" value="10"/>
	</vType>
	<vType id="v_super_aggressive4" minGap="0.44" accel="4.96" decel="4.17" startupDelay="0.39" sigma="0.84" tau="1.0" maxSpeed="169.32" speedFactor="1.93" lcStrategic="4.65" lcCooperative="0.12" lcSpeedGain="4.47" lcKeepRight="1.8" lcOvertakeRight="0.69" lcSpeedGainLookahead="3.85" lcOvertakeDeltaSpeedFactor="1.0" lcPushy="0.91" lcAssertive="3.4" lcImpatience="1.0" lcTimeToImpatience="0.55" lcLaneDiscipline="0.66" lcSigma="0.65" lcAccelLat="4.74" probability="0.19358066244445568">
		<param key="device.rerouting.probability" value="1.0"/>
		<param key="device.rerouting.adaptation-steps" value="18"/>
		<param key="device.rerouting.adaptation-interval" value="10"/>
	</vType>
</vTypeDistribution>

<!-- Trips -->
<trip id="veh1" type="aggressive" depart="0" from="41227653#1" to="41227653#1">
	<stop parkingArea="pa238376227" duration="10"/>
	<stop parkingArea="pa41227653#1" duration="10"/>
	<stop parkingArea="pa41227469#1" duration="10"/>
	<stop parkingArea="pa238376227" duration="10"/>
	<stop parkingArea="pa-238376207#1" duration="10"/>
	<stop parkingArea="pa238376227" duration="10"/>
	<stop parkingArea="pa-238376207#1" duration="10"/>
	<stop parkingArea="pa41227653#1" duration="30"/>
	<stop parkingArea="pa238376227" duration="30"/>
</trip>
<trip id="veh2" type="normal" depart="0" from="41227653#1" to="41227653#1">
	<stop parkingArea="pa238376227" duration="10"/>
	<stop parkingArea="pa55936634#0" duration="40"/>
	<stop parkingArea="pa238376227" duration="10"/>
	<stop parkingArea="pa55936634#0" duration="10"/>
	<stop parkingArea="pa238376227" duration="20"/>
	<stop parkingArea="pa55936634#0" duration="20"/>
	<stop parkingArea="pa238376227" duration="10"/>
	<stop parkingArea="pa55936634#0" duration="20"/>
</trip>
<trip id="veh3" type="cautious" depart="0" from="41227653#1" to="41227653#1">
	<stop parkingArea="pa238376227" duration="10"/>
	<stop parkingArea="pa55936634#0" duration="40"/>
	<stop parkingArea="pa55936634#2" duration="10"/>
	<stop parkingArea="pa238376227" duration="10"/>
	<stop parkingArea="pa55936634#2" duration="20"/>
	<stop parkingArea="pa55936634#0" duration="20"/>
	<stop parkingArea="pa55936634#2" duration="10"/>
	<stop parkingArea="pa238376227" duration="10"/>
	<stop parkingArea="pa55936634#0" duration="10"/>
</trip>
<trip id="veh4" type="super_aggressive" depart="0" from="41227653#1" to="41227653#1">
	<stop parkingArea="pa238376227" duration="10"/>
	<stop parkingArea="pa55936634#0" duration="40"/>
	<stop parkingArea="pa238376227" duration="10"/>
	<stop parkingArea="pa55936634#0" duration="20"/>
	<stop parkingArea="pa238376227" duration="10"/>
	<stop parkingArea="pa55936634#0" duration="20"/>
	<stop parkingArea="pa55936634#2" duration="10"/>
	<stop parkingArea="pa238376227" duration="10"/>
</trip>


 <!-- END - LLM Generated trips -->

<!-- BEGIN - Random Trips -->


</routes>