<routes xmlns:xsi="http://www.w3.org/2001/XMLSchema-instance" xsi:noNamespaceSchemaLocation="http://sumo.dlr.de/xsd/routes_file.xsd">

<!-- BEGIN - LLM Generated trips -->

<!-- Vehicles -->
<vTypeDistribution id="aggressive">
	<vType id="v_aggressive0" minGap="0.65" accel="2.84" decel="2.99" startupDelay="0.4" sigma="0.57" tau="1.51" maxSpeed="102.48" speedFactor="1.39" lcStrategic="2.84" lcCooperative="0.19" lcSpeedGain="3.34" lcKeepRight="2.27" lcOvertakeRight="0.68" lcSpeedGainLookahead="3.46" lcOvertakeDeltaSpeedFactor="0.75" lcPushy="0.91" lcAssertive="2.63" lcImpatience="1.0" lcTimeToImpatience="1.49" lcLaneDiscipline="0.58" lcSigma="0.55" lcAccelLat="3.03" probability="0.5665032298018896">
		<param key="device.rerouting.probability" value="1.0"/>
		<param key="device.rerouting.adaptation-steps" value="18"/>
		<param key="device.rerouting.adaptation-interval" value="10"/>
	</vType>
	<vType id="v_aggressive1" minGap="0.79" accel="2.52" decel="3.13" startupDelay="0.33" sigma="0.58" tau="1.23" maxSpeed="90.84" speedFactor="1.49" lcStrategic="3.1" lcCooperative="0.11" lcSpeedGain="2.59" lcKeepRight="1.96" lcOvertakeRight="0.62" lcSpeedGainLookahead="3.75" lcOvertakeDeltaSpeedFactor="0.86" lcPushy="0.89" lcAssertive="2.42" lcImpatience="1.0" lcTimeToImpatience="1.65" lcLaneDiscipline="0.64" lcSigma="0.55" lcAccelLat="2.66" probability="0.16352861896318208">
		<param key="device.rerouting.probability" value="1.0"/>
		<param key="device.rerouting.adaptation-steps" value="18"/>
		<param key="device.rerouting.adaptation-interval" value="10"/>
	</vType>
	<vType id="v_aggressive2" minGap="0.58" accel="2.91" decel="2.86" startupDelay="0.12" sigma="0.46" tau="1.42" maxSpeed="83.6" speedFactor="1.42" lcStrategic="4.08" lcCooperative="0.02" lcSpeedGain="2.98" lcKeepRight="1.94" lcOvertakeRight="0.67" lcSpeedGainLookahead="3.52" lcOvertakeDeltaSpeedFactor="0.83" lcPushy="0.92" lcAssertive="2.73" lcImpatience="1.0" lcTimeToImpatience="2.09" lcLaneDiscipline="0.8" lcSigma="0.74" lcAccelLat="3.15" probability="0.12447779023396019">
		<param key="device.rerouting.probability" value="1.0"/>
		<param key="device.rerouting.adaptation-steps" value="18"/>
		<param key="device.rerouting.adaptation-interval" value="10"/>
	</vType>
	<vType id="v_aggressive3" minGap="0.92" accel="2.36" decel="3.1" startupDelay="0.66" sigma="0.37" tau="1.96" maxSpeed="89.92" speedFactor="1.31" lcStrategic="3.03" lcCooperative="0.15" lcSpeedGain="3.83" lcKeepRight="2.35" lcOvertakeRight="0.63" lcSpeedGainLookahead="2.54" lcOvertakeDeltaSpeedFactor="0.89" lcPushy="0.91" lcAssertive="3.66" lcImpatience="1.0" lcTimeToImpatience="1.94" lcLaneDiscipline="0.69" lcSigma="0.5" lcAccelLat="3.25" probability="0.05911526897257243">
		<param key="device.rerouting.probability" value="1.0"/>
		<param key="device.rerouting.adaptation-steps" value="18"/>
		<param key="device.rerouting.adaptation-interval" value="10"/>
	</vType>
	<vType id="v_aggressive4" minGap="0.87" accel="2.12" decel="3.54" startupDelay="0.63" sigma="0.54" tau="1.24" maxSpeed="90.73" speedFactor="1.38" lcStrategic="3.24" lcCooperative="0.14" lcSpeedGain="3.65" lcKeepRight="2.28" lcOvertakeRight="0.62" lcSpeedGainLookahead="2.64" lcOvertakeDeltaSpeedFactor="0.66" lcPushy="0.86" lcAssertive="3.1" lcImpatience="1.0" lcTimeToImpatience="1.53" lcLaneDiscipline="0.63" lcSigma="0.63" lcAccelLat="2.83" probability="0.08637509202839581">
		<param key="device.rerouting.probability" value="1.0"/>
		<param key="device.rerouting.adaptation-steps" value="18"/>
		<param key="device.rerouting.adaptation-interval" value="10"/>
	</vType>
</vTypeDistribution>
<vTypeDistribution id="normal">
	<vType id="v_normal0" minGap="1.23" accel="2.03" decel="2.66" startupDelay="1.51" sigma="0.35" tau="2.73" maxSpeed="80.35" speedFactor="1.09" lcStrategic="1.63" lcCooperative="0.5" lcSpeedGain="1.6" lcKeepRight="1.32" lcOvertakeRight="0.1" lcSpeedGainLookahead="1.13" lcOvertakeDeltaSpeedFactor="0.26" lcPushy="0.66" lcAssertive="1.61" lcImpatience="1.0" lcTimeToImpatience="2.34" lcLaneDiscipline="1.1" lcSigma="0.43" lcAccelLat="1.44" probability="0.2235673277028803">
		<param key="device.rerouting.probability" value="1.0"/>
		<param key="device.rerouting.adaptation-steps" value="18"/>
		<param key="device.rerouting.adaptation-interval" value="10"/>
	</vType>
	<vType id="v_normal1" minGap="1.08" accel="2.7" decel="1.99" startupDelay="1.56" sigma="0.3" tau="2.53" maxSpeed="83.68" speedFactor="1.07" lcStrategic="1.6" lcCooperative="0.63" lcSpeedGain="1.54" lcKeepRight="1.23" lcOvertakeRight="0.0" lcSpeedGainLookahead="1.69" lcOvertakeDeltaSpeedFactor="0.29" lcPushy="0.64" lcAssertive="1.78" lcImpatience="1.0" lcTimeToImpatience="2.25" lcLaneDiscipline="1.38" lcSigma="0.4" lcAccelLat="1.36" probability="0.17615730343451347">
		<param key="device.rerouting.probability" value="1.0"/>
		<param key="device.rerouting.adaptation-steps" value="18"/>
		<param key="device.rerouting.adaptation-interval" value="10"/>
	</vType>
	<vType id="v_normal2" minGap="1.47" accel="2.79" decel="2.15" startupDelay="1.51" sigma="0.3" tau="2.51" maxSpeed="85.74" speedFactor="1.06" lcStrategic="1.45" lcCooperative="0.72" lcSpeedGain="1.62" lcKeepRight="1.34" lcOvertakeRight="0.04" lcSpeedGainLookahead="1.57" lcOvertakeDeltaSpeedFactor="0.38" lcPushy="0.64" lcAssertive="1.77" lcImpatience="1.0" lcTimeToImpatience="2.55" lcLaneDiscipline="1.05" lcSigma="0.45" lcAccelLat="1.47" probability="0.3027004292098279">
		<param key="device.rerouting.probability" value="1.0"/>
		<param key="device.rerouting.adaptation-steps" value="18"/>
		<param key="device.rerouting.adaptation-interval" value="10"/>
	</vType>
	<vType id="v_normal3" minGap="1.14" accel="1.99" decel="1.68" startupDelay="1.66" sigma="0.29" tau="2.9" maxSpeed="88.76" speedFactor="1.09" lcStrategic="1.73" lcCooperative="0.76" lcSpeedGain="1.47" lcKeepRight="1.16" lcOvertakeRight="0.11" lcSpeedGainLookahead="1.12" lcOvertakeDeltaSpeedFactor="0.33" lcPushy="0.7" lcAssertive="1.59" lcImpatience="1.0" lcTimeToImpatience="2.37" lcLaneDiscipline="1.09" lcSigma="0.53" lcAccelLat="1.87" probability="0.06273954038014141">
		<param key="device.rerouting.probability" value="1.0"/>
		<param key="device.rerouting.adaptation-steps" value="18"/>
		<param key="device.rerouting.adaptation-interval" value="10"/>
	</vType>
	<vType id="v_normal4" minGap="1.33" accel="1.54" decel="2.28" startupDelay="1.33" sigma="0.35" tau="2.39" maxSpeed="85.8" speedFactor="1.11" lcStrategic="1.61" lcCooperative="0.8" lcSpeedGain="1.81" lcKeepRight="1.4" lcOvertakeRight="0.1" lcSpeedGainLookahead="1.44" lcOvertakeDeltaSpeedFactor="0.34" lcPushy="0.64" lcAssertive="1.51" lcImpatience="1.0" lcTimeToImpatience="2.44" lcLaneDiscipline="1.22" lcSigma="0.39" lcAccelLat="1.24" probability="0.23483539927263689">
		<param key="device.rerouting.probability" value="1.0"/>
		<param key="device.rerouting.adaptation-steps" value="18"/>
		<param key="device.rerouting.adaptation-interval" value="10"/>
	</vType>
</vTypeDistribution>
<vTypeDistribution id="cautious">
	<vType id="v_cautious0" minGap="1.6" accel="1.56" decel="2.09" startupDelay="2.58" sigma="0.17" tau="3.19" maxSpeed="68.05" speedFactor="0.89" lcStrategic="0.78" lcCooperative="0.94" lcSpeedGain="0.21" lcKeepRight="0.73" lcOvertakeRight="-0.0" lcSpeedGainLookahead="0.36" lcOvertakeDeltaSpeedFactor="0.1" lcPushy="0.47" lcAssertive="1.0" lcImpatience="0.82" lcTimeToImpatience="3.24" lcLaneDiscipline="1.56" lcSigma="0.33" lcAccelLat="0.66" probability="0.19098403509289308">
		<param key="device.rerouting.probability" value="1.0"/>
		<param key="device.rerouting.adaptation-steps" value="18"/>
		<param key="device.rerouting.adaptation-interval" value="10"/>
	</vType>
	<vType id="v_cautious1" minGap="1.76" accel="1.57" decel="1.28" startupDelay="2.33" sigma="0.2" tau="3.8" maxSpeed="55.1" speedFactor="0.87" lcStrategic="0.71" lcCooperative="1.0" lcSpeedGain="0.63" lcKeepRight="1.01" lcOvertakeRight="0.09" lcSpeedGainLookahead="0.69" lcOvertakeDeltaSpeedFactor="0.03" lcPushy="0.39" lcAssertive="1.0" lcImpatience="1.0" lcTimeToImpatience="3.05" lcLaneDiscipline="1.92" lcSigma="0.28" lcAccelLat="0.75" probability="0.12797035952490562">
		<param key="device.rerouting.probability" value="1.0"/>
		<param key="device.rerouting.adaptation-steps" value="18"/>
		<param key="device.rerouting.adaptation-interval" value="10"/>
	</vType>
	<vType id="v_cautious2" minGap="1.65" accel="1.35" decel="1.67" startupDelay="2.73" sigma="0.22" tau="3.29" maxSpeed="56.76" speedFactor="0.86" lcStrategic="0.66" lcCooperative="0.81" lcSpeedGain="0.29" lcKeepRight="0.74" lcOvertakeRight="0.01" lcSpeedGainLookahead="0.71" lcOvertakeDeltaSpeedFactor="0.12" lcPushy="0.27" lcAssertive="1.0" lcImpatience="0.5" lcTimeToImpatience="3.58" lcLaneDiscipline="1.64" lcSigma="0.46" lcAccelLat="0.81" probability="0.13079070426235673">
		<param key="device.rerouting.probability" value="1.0"/>
		<param key="device.rerouting.adaptation-steps" value="18"/>
		<param key="device.rerouting.adaptation-interval" value="10"/>
	</vType>
	<vType id="v_cautious3" minGap="1.73" accel="1.45" decel="1.49" startupDelay="2.72" sigma="0.23" tau="3.51" maxSpeed="52.14" speedFactor="0.85" lcStrategic="0.68" lcCooperative="0.94" lcSpeedGain="0.68" lcKeepRight="0.93" lcOvertakeRight="0.04" lcSpeedGainLookahead="0.72" lcOvertakeDeltaSpeedFactor="0.24" lcPushy="0.35" lcAssertive="1.0" lcImpatience="0.75" lcTimeToImpatience="3.04" lcLaneDiscipline="1.82" lcSigma="0.32" lcAccelLat="0.88" probability="0.39609953890301686">
		<param key="device.rerouting.probability" value="1.0"/>
		<param key="device.rerouting.adaptation-steps" value="18"/>
		<param key="device.rerouting.adaptation-interval" value="10"/>
	</vType>
	<vType id="v_cautious4" minGap="1.59" accel="1.43" decel="1.3" startupDelay="2.0" sigma="0.16" tau="3.94" maxSpeed="77.16" speedFactor="0.87" lcStrategic="0.74" lcCooperative="0.85" lcSpeedGain="0.34" lcKeepRight="0.73" lcOvertakeRight="0.05" lcSpeedGainLookahead="0.61" lcOvertakeDeltaSpeedFactor="0.12" lcPushy="0.38" lcAssertive="1.0" lcImpatience="0.82" lcTimeToImpatience="3.93" lcLaneDiscipline="1.55" lcSigma="0.38" lcAccelLat="0.47" probability="0.15415536221682774">
		<param key="device.rerouting.probability" value="1.0"/>
		<param key="device.rerouting.adaptation-steps" value="18"/>
		<param key="device.rerouting.adaptation-interval" value="10"/>
	</vType>
</vTypeDistribution>
<vTypeDistribution id="super_aggressive">
	<vType id="v_super_aggressive0" minGap="0.18" accel="4.88" decel="4.54" startupDelay="0.0" sigma="0.77" tau="1.19" maxSpeed="125.16" speedFactor="1.5" lcStrategic="5.02" lcCooperative="0.01" lcSpeedGain="4.48" lcKeepRight="0.1" lcOvertakeRight="0.92" lcSpeedGainLookahead="5.05" lcOvertakeDeltaSpeedFactor="1.0" lcPushy="1.0" lcAssertive="4.96" lcImpatience="1.0" lcTimeToImpatience="0.85" lcLaneDiscipline="0.25" lcSigma="0.83" lcAccelLat="4.9" probability="0.31336801049419705">
		<param key="device.rerouting.probability" value="1.0"/>
		<param key="device.rerouting.adaptation-steps" value="18"/>
		<param key="device.rerouting.adaptation-interval" value="10"/>
	</vType>
	<vType id="v_super_aggressive1" minGap="0.44" accel="5.34" decel="5.93" startupDelay="0.29" sigma="0.71" tau="1.39" maxSpeed="131.58" speedFactor="1.72" lcStrategic="4.81" lcCooperative="0.06" lcSpeedGain="5.97" lcKeepRight="0.03" lcOvertakeRight="0.89" lcSpeedGainLookahead="4.81" lcOvertakeDeltaSpeedFactor="1.0" lcPushy="1.0" lcAssertive="5.66" lcImpatience="1.0" lcTimeToImpatience="0.74" lcLaneDiscipline="0.18" lcSigma="0.87" lcAccelLat="4.43" probability="0.06880834956540126">
		<param key="device.rerouting.probability" value="1.0"/>
		<param key="device.rerouting.adaptation-steps" value="18"/>
		<param key="device.rerouting.adaptation-interval" value="10"/>
	</vType>
	<vType id="v_super_aggressive2" minGap="0.38" accel="4.51" decel="4.76" startupDelay="0.0" sigma="0.77" tau="1.0" maxSpeed="143.15" speedFactor="1.63" lcStrategic="4.31" lcCooperative="0.04" lcSpeedGain="5.62" lcKeepRight="0.2" lcOvertakeRight="0.89" lcSpeedGainLookahead="6.19" lcOvertakeDeltaSpeedFactor="1.0" lcPushy="1.0" lcAssertive="4.84" lcImpatience="1.0" lcTimeToImpatience="0.96" lcLaneDiscipline="0.4" lcSigma="0.82" lcAccelLat="5.26" probability="0.36127617711058835">
		<param key="device.rerouting.probability" value="1.0"/>
		<param key="device.rerouting.adaptation-steps" value="18"/>
		<param key="device.rerouting.adaptation-interval" value="10"/>
	</vType>
	<vType id="v_super_aggressive3" minGap="0.29" accel="5.92" decel="4.55" startupDelay="0.3" sigma="0.81" tau="1.07" maxSpeed="150.37" speedFactor="1.69" lcStrategic="5.58" lcCooperative="0.03" lcSpeedGain="4.57" lcKeepRight="0.32" lcOvertakeRight="0.88" lcSpeedGainLookahead="5.53" lcOvertakeDeltaSpeedFactor="1.0" lcPushy="1.0" lcAssertive="4.91" lcImpatience="1.0" lcTimeToImpatience="1.46" lcLaneDiscipline="0.31" lcSigma="0.74" lcAccelLat="4.72" probability="0.06530953651724931">
		<param key="device.rerouting.probability" value="1.0"/>
		<param key="device.rerouting.adaptation-steps" value="18"/>
		<param key="device.rerouting.adaptation-interval" value="10"/>
	</vType>
	<vType id="v_super_aggressive4" minGap="0.29" accel="5.21" decel="5.4" startupDelay="0.0" sigma="0.72" tau="1.0" maxSpeed="127.08" speedFactor="1.72" lcStrategic="5.77" lcCooperative="0.0" lcSpeedGain="5.37" lcKeepRight="0.09" lcOvertakeRight="0.89" lcSpeedGainLookahead="5.24" lcOvertakeDeltaSpeedFactor="1.0" lcPushy="1.0" lcAssertive="4.63" lcImpatience="1.0" lcTimeToImpatience="1.0" lcLaneDiscipline="0.51" lcSigma="0.85" lcAccelLat="4.52" probability="0.191237926312564">
		<param key="device.rerouting.probability" value="1.0"/>
		<param key="device.rerouting.adaptation-steps" value="18"/>
		<param key="device.rerouting.adaptation-interval" value="10"/>
	</vType>
</vTypeDistribution>

<!-- Trips -->
<trip id="veh1" type="aggressive" depart="0" from="41227653#1" to="41227653#1">
	<stop parkingArea="pa238376227" duration="10"/>
	<stop parkingArea="pa55936634#0" duration="40"/>
	<stop parkingArea="pa238376227" duration="10"/>
	<stop parkingArea="pa55936634#0" duration="10"/>
	<stop parkingArea="pa238376227" duration="20"/>
</trip>
<trip id="veh2" type="normal" depart="0" from="41227653#1" to="41227653#1">
	<stop parkingArea="pa238376227" duration="10"/>
	<stop parkingArea="pa55936634#0" duration="40"/>
	<stop parkingArea="pa55936634#2" duration="10"/>
	<stop parkingArea="pa238376227" duration="10"/>
	<stop parkingArea="pa55936634#2" duration="20"/>
	<stop parkingArea="pa55936634#0" duration="20"/>
	<stop parkingArea="pa55936634#2" duration="10"/>
	<stop parkingArea="pa238376227" duration="10"/>
</trip>
<trip id="veh3" type="cautious" depart="0" from="41227653#1" to="41227653#1">
	<stop parkingArea="pa238376227" duration="10"/>
	<stop parkingArea="pa238376124" duration="50"/>
	<stop parkingArea="pa238376208" duration="40"/>
</trip>
<trip id="veh4" type="super_aggressive" depart="0" from="41227653#1" to="41227653#1">
	<stop parkingArea="pa238376227" duration="10"/>
	<stop parkingArea="pa-238376207#1" duration="90"/>
	<stop parkingArea="pa238376227" duration="10"/>
</trip>


 <!-- END - LLM Generated trips -->

<!-- BEGIN - Random Trips -->


</routes>