<?xml version="1.0" encoding="UTF-8"?>

<!-- generated on 2025-01-21 15:39:39 by Eclipse SUMO netconvert Version 1.21.0
<netconvertConfiguration xmlns:xsi="http://www.w3.org/2001/XMLSchema-instance" xsi:noNamespaceSchemaLocation="http://sumo.dlr.de/xsd/netconvertConfiguration.xsd">

    <input>
        <type-files value="${SUMO_HOME}/data/typemap/osmNetconvert.typ.xml"/>
        <osm-files value="osm_bbox.osm.xml.gz"/>
    </input>

    <output>
        <output-file value="osm.net.xml.gz"/>
        <output.street-names value="true"/>
        <output.original-names value="true"/>
    </output>

    <projection>
        <proj.utm value="true"/>
    </projection>

    <processing>
        <geometry.remove value="true"/>
        <roundabouts.guess value="true"/>
    </processing>

    <tls_building>
        <tls.discard-simple value="true"/>
        <tls.join value="true"/>
        <tls.guess-signals value="true"/>
        <tls.default-type value="actuated"/>
    </tls_building>

    <ramp_guessing>
        <ramps.guess value="true"/>
    </ramp_guessing>

    <edge_removal>
        <keep-edges.by-vclass value="passenger"/>
    </edge_removal>

    <junctions>
        <junctions.join value="true"/>
        <junctions.corner-detail value="5"/>
    </junctions>

</netconvertConfiguration>
-->

<net version="1.20" junctionCornerDetail="5" limitTurnSpeed="5.50" xmlns:xsi="http://www.w3.org/2001/XMLSchema-instance" xsi:noNamespaceSchemaLocation="http://sumo.dlr.de/xsd/net_file.xsd">

    <location netOffset="-200302.08,2435754.08" convBoundary="0.00,0.00,8735.27,9624.26" origBoundary="-47.902470,-22.001296,-47.816344,-21.915367" projParameter="+proj=utm +zone=23 +ellps=WGS84 +datum=WGS84 +units=m +no_defs"/>

    <type id="highway.living_street" priority="2" numLanes="1" speed="2.78" disallow="tram rail_urban rail rail_electric rail_fast ship container cable_car subway aircraft wheelchair scooter drone" oneway="0"/>
    <type id="highway.motorway" priority="14" numLanes="2" speed="39.44" allow="private emergency authority army vip passenger hov taxi bus coach delivery truck trailer motorcycle evehicle custom1 custom2" oneway="1"/>
    <type id="highway.motorway_link" priority="9" numLanes="1" speed="22.22" allow="private emergency authority army vip passenger hov taxi bus coach delivery truck trailer motorcycle evehicle custom1 custom2" oneway="1"/>
    <type id="highway.primary" priority="12" numLanes="2" speed="27.78" disallow="tram rail_urban rail rail_electric rail_fast ship container cable_car subway aircraft wheelchair scooter drone" oneway="0"/>
    <type id="highway.residential" priority="3" numLanes="1" speed="13.89" disallow="tram rail_urban rail rail_electric rail_fast ship container cable_car subway aircraft wheelchair scooter drone" oneway="0"/>
    <type id="highway.secondary" priority="11" numLanes="1" speed="27.78" disallow="tram rail_urban rail rail_electric rail_fast ship container cable_car subway aircraft wheelchair scooter drone" oneway="0"/>
    <type id="highway.secondary_link" priority="6" numLanes="1" speed="22.22" disallow="tram rail_urban rail rail_electric rail_fast ship container cable_car subway aircraft wheelchair scooter drone" oneway="0"/>
    <type id="highway.tertiary" priority="10" numLanes="1" speed="22.22" disallow="tram rail_urban rail rail_electric rail_fast ship container cable_car subway aircraft wheelchair scooter drone" oneway="0"/>
    <type id="highway.tertiary_link" priority="5" numLanes="1" speed="22.22" disallow="tram rail_urban rail rail_electric rail_fast ship container cable_car subway aircraft wheelchair scooter drone" oneway="0"/>
    <type id="highway.trunk" priority="13" numLanes="2" speed="27.78" disallow="pedestrian bicycle tram rail_urban rail rail_electric rail_fast ship container cable_car subway aircraft wheelchair scooter drone" oneway="0"/>
    <type id="highway.unclassified" priority="4" numLanes="1" speed="13.89" disallow="tram rail_urban rail rail_electric rail_fast ship container cable_car subway aircraft wheelchair scooter drone" oneway="0"/>

    <edge id=":1013783551_0" function="internal">
        <lane id=":1013783551_0_0" index="0" disallow="tram rail_urban rail rail_electric rail_fast ship container cable_car subway aircraft wheelchair scooter drone" speed="3.65" length="4.67" shape="554.99,1142.52 554.02,1141.45 553.83,1140.58 554.42,1139.90 555.78,1139.43"/>
    </edge>
    <edge id=":1013783556_0" function="internal">
        <lane id=":1013783556_0_0" index="0" disallow="tram rail_urban rail rail_electric rail_fast ship container cable_car subway aircraft wheelchair scooter drone" speed="8.00" length="2.29" shape="828.61,1012.92 828.07,1013.33 827.67,1013.57 827.23,1013.72 826.57,1013.86"/>
    </edge>
    <edge id=":1013783556_1" function="internal">
        <lane id=":1013783556_1_0" index="0" disallow="tram rail_urban rail rail_electric rail_fast ship container cable_car subway aircraft wheelchair scooter drone" speed="13.89" length="0.76" shape="825.95,1010.72 826.17,1010.67 826.32,1010.62 826.45,1010.54 826.63,1010.41"/>
    </edge>
    <edge id=":1013783598_0" function="internal">
        <lane id=":1013783598_0_0" index="0" disallow="tram rail_urban rail rail_electric rail_fast ship container cable_car subway aircraft wheelchair scooter drone" speed="3.65" length="4.67" shape="800.81,1132.33 801.80,1133.38 802.01,1134.25 801.44,1134.94 800.09,1135.45"/>
    </edge>
    <edge id=":1013783613_0" function="internal">
        <lane id=":1013783613_0_0" index="0" disallow="tram rail_urban rail rail_electric rail_fast ship container cable_car subway aircraft wheelchair scooter drone" speed="13.89" length="19.29" shape="702.24,899.66 683.41,903.86"/>
    </edge>
    <edge id=":1013783613_1" function="internal">
        <lane id=":1013783613_1_0" index="0" disallow="tram rail_urban rail rail_electric rail_fast ship container cable_car subway aircraft wheelchair scooter drone" speed="13.89" length="3.19" shape="702.24,899.66 699.05,899.63"/>
    </edge>
    <edge id=":1013783613_2" function="internal">
        <lane id=":1013783613_2_0" index="0" disallow="tram rail_urban rail rail_electric rail_fast ship container cable_car subway aircraft wheelchair scooter drone" speed="3.65" length="1.44" shape="702.24,899.66 700.92,899.09"/>
    </edge>
    <edge id=":1013783613_9" function="internal">
        <lane id=":1013783613_9_0" index="0" disallow="tram rail_urban rail rail_electric rail_fast ship container cable_car subway aircraft wheelchair scooter drone" speed="13.89" length="16.64" shape="699.05,899.63 697.82,899.62 692.55,898.52 687.31,896.91 683.03,895.36"/>
    </edge>
    <edge id=":1013783613_10" function="internal">
        <lane id=":1013783613_10_0" index="0" disallow="tram rail_urban rail rail_electric rail_fast ship container cable_car subway aircraft wheelchair scooter drone" speed="3.65" length="3.23" shape="700.92,899.09 700.38,898.38 700.62,897.52 701.66,896.52"/>
    </edge>
    <edge id=":1013783613_3" function="internal">
        <lane id=":1013783613_3_0" index="0" disallow="tram rail_urban rail rail_electric rail_fast ship container cable_car subway aircraft wheelchair scooter drone" speed="13.89" length="18.14" shape="684.16,892.37 688.18,893.89 692.82,895.45 697.51,896.50 701.66,896.52"/>
    </edge>
    <edge id=":1013783613_4" function="internal">
        <lane id=":1013783613_4_0" index="0" disallow="tram rail_urban rail rail_electric rail_fast ship container cable_car subway aircraft wheelchair scooter drone" speed="7.68" length="22.71" shape="684.16,892.37 691.03,895.70 693.20,898.73 690.66,901.45 683.41,903.86"/>
    </edge>
    <edge id=":1013783613_5" function="internal">
        <lane id=":1013783613_5_0" index="0" disallow="tram rail_urban rail rail_electric rail_fast ship container cable_car subway aircraft wheelchair scooter drone" speed="3.65" length="4.67" shape="684.16,892.37 685.00,893.54 685.09,894.43 684.44,895.04 683.03,895.36"/>
    </edge>
    <edge id=":1013783613_6" function="internal">
        <lane id=":1013783613_6_0" index="0" disallow="tram rail_urban rail rail_electric rail_fast ship container cable_car subway aircraft wheelchair scooter drone" speed="5.48" length="10.64" shape="682.68,900.75 686.07,899.62 687.26,898.34 686.25,896.92 683.03,895.36"/>
    </edge>
    <edge id=":1013783613_7" function="internal">
        <lane id=":1013783613_7_0" index="0" disallow="tram rail_urban rail rail_electric rail_fast ship container cable_car subway aircraft wheelchair scooter drone" speed="13.89" length="19.44" shape="682.68,900.75 701.66,896.52"/>
    </edge>
    <edge id=":1013783613_8" function="internal">
        <lane id=":1013783613_8_0" index="0" disallow="tram rail_urban rail rail_electric rail_fast ship container cable_car subway aircraft wheelchair scooter drone" speed="3.65" length="1.44" shape="682.68,900.75 684.03,901.25"/>
    </edge>
    <edge id=":1013783613_11" function="internal">
        <lane id=":1013783613_11_0" index="0" disallow="tram rail_urban rail rail_electric rail_fast ship container cable_car subway aircraft wheelchair scooter drone" speed="3.65" length="3.23" shape="684.03,901.25 684.60,901.94 684.40,902.81 683.41,903.86"/>
    </edge>
    <edge id=":1013783617_0" function="internal">
        <lane id=":1013783617_0_0" index="0" disallow="tram rail_urban rail rail_electric rail_fast ship container cable_car subway aircraft wheelchair scooter drone" speed="13.89" length="14.74" shape="680.30,1292.10 671.99,1304.26"/>
    </edge>
    <edge id=":1013783617_1" function="internal">
        <lane id=":1013783617_1_0" index="0" disallow="tram rail_urban rail rail_electric rail_fast ship container cable_car subway aircraft wheelchair scooter drone" speed="9.59" length="3.57" shape="680.30,1292.10 677.89,1294.57 677.79,1294.62"/>
    </edge>
    <edge id=":1013783617_2" function="internal">
        <lane id=":1013783617_2_0" index="0" disallow="tram rail_urban rail rail_electric rail_fast ship container cable_car subway aircraft wheelchair scooter drone" speed="3.65" length="1.44" shape="680.30,1292.10 678.96,1292.62"/>
    </edge>
    <edge id=":1013783617_9" function="internal">
        <lane id=":1013783617_9_0" index="0" disallow="tram rail_urban rail rail_electric rail_fast ship container cable_car subway aircraft wheelchair scooter drone" speed="9.59" length="11.42" shape="677.79,1294.62 674.82,1296.00 671.10,1296.40 666.74,1295.75"/>
    </edge>
    <edge id=":1013783617_10" function="internal">
        <lane id=":1013783617_10_0" index="0" disallow="tram rail_urban rail rail_electric rail_fast ship container cable_car subway aircraft wheelchair scooter drone" speed="3.65" length="3.23" shape="678.96,1292.62 678.08,1292.49 677.65,1291.71 677.68,1290.26"/>
    </edge>
    <edge id=":1013783617_3" function="internal">
        <lane id=":1013783617_3_0" index="0" disallow="tram rail_urban rail rail_electric rail_fast ship container cable_car subway aircraft wheelchair scooter drone" speed="8.33" length="11.13" shape="667.51,1292.65 670.86,1293.17 673.68,1292.95 675.95,1291.98 677.68,1290.26"/>
    </edge>
    <edge id=":1013783617_4" function="internal">
        <lane id=":1013783617_4_0" index="0" disallow="tram rail_urban rail rail_electric rail_fast ship container cable_car subway aircraft wheelchair scooter drone" speed="7.52" length="15.73" shape="667.51,1292.65 671.74,1294.35 673.90,1296.85 673.98,1300.16 671.99,1304.26"/>
    </edge>
    <edge id=":1013783617_5" function="internal">
        <lane id=":1013783617_5_0" index="0" disallow="tram rail_urban rail rail_electric rail_fast ship container cable_car subway aircraft wheelchair scooter drone" speed="3.65" length="4.67" shape="667.51,1292.65 668.48,1293.71 668.68,1294.58 668.09,1295.26 666.74,1295.75"/>
    </edge>
    <edge id=":1013783617_6" function="internal">
        <lane id=":1013783617_6_0" index="0" disallow="tram rail_urban rail rail_electric rail_fast ship container cable_car subway aircraft wheelchair scooter drone" speed="5.88" length="9.11" shape="669.33,1302.48 670.48,1300.10 670.44,1298.19 669.19,1296.74 666.74,1295.75"/>
    </edge>
    <edge id=":1013783617_7" function="internal">
        <lane id=":1013783617_7_0" index="0" disallow="tram rail_urban rail rail_electric rail_fast ship container cable_car subway aircraft wheelchair scooter drone" speed="13.89" length="14.80" shape="669.33,1302.48 677.68,1290.26"/>
    </edge>
    <edge id=":1013783617_8" function="internal">
        <lane id=":1013783617_8_0" index="0" disallow="tram rail_urban rail rail_electric rail_fast ship container cable_car subway aircraft wheelchair scooter drone" speed="3.65" length="1.44" shape="669.33,1302.48 670.67,1301.93"/>
    </edge>
    <edge id=":1013783617_11" function="internal">
        <lane id=":1013783617_11_0" index="0" disallow="tram rail_urban rail rail_electric rail_fast ship container cable_car subway aircraft wheelchair scooter drone" speed="3.65" length="3.23" shape="670.67,1301.93 671.55,1302.04 671.99,1302.82 671.99,1304.26"/>
    </edge>
    <edge id=":1013783632_0" function="internal">
        <lane id=":1013783632_0_0" index="0" disallow="tram rail_urban rail rail_electric rail_fast ship container cable_car subway aircraft wheelchair scooter drone" speed="6.51" length="9.01" shape="779.85,1005.04 777.39,1004.84 775.45,1005.46 774.03,1006.93 773.13,1009.22"/>
    </edge>
    <edge id=":1013783632_1" function="internal">
        <lane id=":1013783632_1_0" index="0" disallow="tram rail_urban rail rail_electric rail_fast ship container cable_car subway aircraft wheelchair scooter drone" speed="13.89" length="14.35" shape="779.85,1005.04 765.88,1001.75"/>
    </edge>
    <edge id=":1013783632_2" function="internal">
        <lane id=":1013783632_2_0" index="0" disallow="tram rail_urban rail rail_electric rail_fast ship container cable_car subway aircraft wheelchair scooter drone" speed="3.65" length="1.44" shape="779.85,1005.04 778.86,1003.99"/>
    </edge>
    <edge id=":1013783632_9" function="internal">
        <lane id=":1013783632_9_0" index="0" disallow="tram rail_urban rail rail_electric rail_fast ship container cable_car subway aircraft wheelchair scooter drone" speed="3.65" length="3.23" shape="778.86,1003.99 778.65,1003.13 779.21,1002.44 780.56,1001.92"/>
    </edge>
    <edge id=":1013783632_3" function="internal">
        <lane id=":1013783632_3_0" index="0" disallow="tram rail_urban rail rail_electric rail_fast ship container cable_car subway aircraft wheelchair scooter drone" speed="13.89" length="14.32" shape="766.63,998.64 780.56,1001.92"/>
    </edge>
    <edge id=":1013783632_4" function="internal">
        <lane id=":1013783632_4_0" index="0" disallow="tram rail_urban rail rail_electric rail_fast ship container cable_car subway aircraft wheelchair scooter drone" speed="8.00" length="4.02" shape="766.63,998.64 770.23,1000.07 770.33,1000.18"/>
    </edge>
    <edge id=":1013783632_5" function="internal">
        <lane id=":1013783632_5_0" index="0" disallow="tram rail_urban rail rail_electric rail_fast ship container cable_car subway aircraft wheelchair scooter drone" speed="3.65" length="1.44" shape="766.63,998.64 767.61,999.70"/>
    </edge>
    <edge id=":1013783632_10" function="internal">
        <lane id=":1013783632_10_0" index="0" disallow="tram rail_urban rail rail_electric rail_fast ship container cable_car subway aircraft wheelchair scooter drone" speed="8.00" length="10.13" shape="770.33,1000.18 772.51,1002.31 773.48,1005.36 773.13,1009.22"/>
    </edge>
    <edge id=":1013783632_11" function="internal">
        <lane id=":1013783632_11_0" index="0" disallow="tram rail_urban rail rail_electric rail_fast ship container cable_car subway aircraft wheelchair scooter drone" speed="3.65" length="3.23" shape="767.61,999.70 767.81,1000.57 767.23,1001.26 765.88,1001.75"/>
    </edge>
    <edge id=":1013783632_6" function="internal">
        <lane id=":1013783632_6_0" index="0" disallow="tram rail_urban rail rail_electric rail_fast ship container cable_car subway aircraft wheelchair scooter drone" speed="6.51" length="9.00" shape="770.02,1008.49 770.24,1006.03 769.62,1004.09 768.17,1002.67 765.88,1001.75"/>
    </edge>
    <edge id=":1013783632_7" function="internal">
        <lane id=":1013783632_7_0" index="0" disallow="tram rail_urban rail rail_electric rail_fast ship container cable_car subway aircraft wheelchair scooter drone" speed="8.01" length="14.15" shape="770.02,1008.49 771.43,1004.88 773.66,1002.58 776.71,1001.60 780.56,1001.92"/>
    </edge>
    <edge id=":1013783632_8" function="internal">
        <lane id=":1013783632_8_0" index="0" disallow="tram rail_urban rail rail_electric rail_fast ship container cable_car subway aircraft wheelchair scooter drone" speed="3.65" length="4.67" shape="770.02,1008.49 771.07,1007.50 771.94,1007.30 772.63,1007.87 773.13,1009.22"/>
    </edge>
    <edge id=":1013783654_0" function="internal">
        <lane id=":1013783654_0_0" index="0" disallow="tram rail_urban rail rail_electric rail_fast ship container cable_car subway aircraft wheelchair scooter drone" speed="13.89" length="14.31" shape="732.80,1174.89 729.31,1188.77"/>
    </edge>
    <edge id=":1013783654_1" function="internal">
        <lane id=":1013783654_1_0" index="0" disallow="tram rail_urban rail rail_electric rail_fast ship container cable_car subway aircraft wheelchair scooter drone" speed="8.08" length="3.96" shape="732.80,1174.89 731.30,1178.44 731.22,1178.51"/>
    </edge>
    <edge id=":1013783654_2" function="internal">
        <lane id=":1013783654_2_0" index="0" disallow="tram rail_urban rail rail_electric rail_fast ship container cable_car subway aircraft wheelchair scooter drone" speed="3.65" length="1.44" shape="732.80,1174.89 731.72,1175.85"/>
    </edge>
    <edge id=":1013783654_9" function="internal">
        <lane id=":1013783654_9_0" index="0" disallow="tram rail_urban rail rail_electric rail_fast ship container cable_car subway aircraft wheelchair scooter drone" speed="8.08" length="10.22" shape="731.22,1178.51 729.02,1180.69 725.93,1181.64 722.05,1181.30"/>
    </edge>
    <edge id=":1013783654_10" function="internal">
        <lane id=":1013783654_10_0" index="0" disallow="tram rail_urban rail rail_electric rail_fast ship container cable_car subway aircraft wheelchair scooter drone" speed="3.65" length="3.23" shape="731.72,1175.85 730.84,1176.03 730.17,1175.45 729.70,1174.08"/>
    </edge>
    <edge id=":1013783654_3" function="internal">
        <lane id=":1013783654_3_0" index="0" disallow="tram rail_urban rail rail_electric rail_fast ship container cable_car subway aircraft wheelchair scooter drone" speed="6.60" length="9.13" shape="722.77,1178.18 725.27,1178.40 727.27,1177.79 728.74,1176.35 729.70,1174.08"/>
    </edge>
    <edge id=":1013783654_4" function="internal">
        <lane id=":1013783654_4_0" index="0" disallow="tram rail_urban rail rail_electric rail_fast ship container cable_car subway aircraft wheelchair scooter drone" speed="7.98" length="14.23" shape="722.77,1178.18 726.41,1179.59 728.71,1181.82 729.68,1184.88 729.31,1188.77"/>
    </edge>
    <edge id=":1013783654_5" function="internal">
        <lane id=":1013783654_5_0" index="0" disallow="tram rail_urban rail rail_electric rail_fast ship container cable_car subway aircraft wheelchair scooter drone" speed="3.65" length="4.67" shape="722.77,1178.18 723.76,1179.23 723.97,1180.10 723.40,1180.79 722.05,1181.30"/>
    </edge>
    <edge id=":1013783654_6" function="internal">
        <lane id=":1013783654_6_0" index="0" disallow="tram rail_urban rail rail_electric rail_fast ship container cable_car subway aircraft wheelchair scooter drone" speed="6.49" length="9.03" shape="726.20,1188.02 726.44,1185.55 725.82,1183.61 724.36,1182.19 722.05,1181.30"/>
    </edge>
    <edge id=":1013783654_7" function="internal">
        <lane id=":1013783654_7_0" index="0" disallow="tram rail_urban rail rail_electric rail_fast ship container cable_car subway aircraft wheelchair scooter drone" speed="13.89" length="14.37" shape="726.20,1188.02 729.70,1174.08"/>
    </edge>
    <edge id=":1013783654_8" function="internal">
        <lane id=":1013783654_8_0" index="0" disallow="tram rail_urban rail rail_electric rail_fast ship container cable_car subway aircraft wheelchair scooter drone" speed="3.65" length="1.44" shape="726.20,1188.02 727.26,1187.04"/>
    </edge>
    <edge id=":1013783654_11" function="internal">
        <lane id=":1013783654_11_0" index="0" disallow="tram rail_urban rail rail_electric rail_fast ship container cable_car subway aircraft wheelchair scooter drone" speed="3.65" length="3.23" shape="727.26,1187.04 728.13,1186.84 728.82,1187.42 729.31,1188.77"/>
    </edge>
    <edge id=":1013783669_0" function="internal">
        <lane id=":1013783669_0_0" index="0" disallow="tram rail_urban rail rail_electric rail_fast ship container cable_car subway aircraft wheelchair scooter drone" speed="3.65" length="4.67" shape="541.08,1202.61 540.10,1201.56 539.89,1200.69 540.47,1200.00 541.82,1199.50"/>
    </edge>
    <edge id=":1013783681_0" function="internal">
        <lane id=":1013783681_0_0" index="0" disallow="tram rail_urban rail rail_electric rail_fast ship container cable_car subway aircraft wheelchair scooter drone" speed="3.65" length="4.67" shape="-0.84,593.36 -1.44,592.05 -1.36,591.16 -0.60,590.69 0.84,590.64"/>
    </edge>
    <edge id=":1013783701_0" function="internal">
        <lane id=":1013783701_0_0" index="0" disallow="tram rail_urban rail rail_electric rail_fast ship container cable_car subway aircraft wheelchair scooter drone" speed="8.42" length="11.31" shape="874.30,870.00 871.97,870.73 870.04,872.32 868.49,874.75 867.34,878.03"/>
    </edge>
    <edge id=":1013783701_1" function="internal">
        <lane id=":1013783701_1_0" index="0" disallow="tram rail_urban rail rail_electric rail_fast ship container cable_car subway aircraft wheelchair scooter drone" speed="13.89" length="14.91" shape="874.30,870.00 859.51,871.90"/>
    </edge>
    <edge id=":1013783701_2" function="internal">
        <lane id=":1013783701_2_0" index="0" disallow="tram rail_urban rail rail_electric rail_fast ship container cable_car subway aircraft wheelchair scooter drone" speed="3.65" length="1.44" shape="874.30,870.00 873.02,869.35"/>
    </edge>
    <edge id=":1013783701_9" function="internal">
        <lane id=":1013783701_9_0" index="0" disallow="tram rail_urban rail rail_electric rail_fast ship container cable_car subway aircraft wheelchair scooter drone" speed="3.65" length="3.23" shape="873.02,869.35 872.52,868.61 872.82,867.76 873.92,866.82"/>
    </edge>
    <edge id=":1013783701_3" function="internal">
        <lane id=":1013783701_3_0" index="0" disallow="tram rail_urban rail rail_electric rail_fast ship container cable_car subway aircraft wheelchair scooter drone" speed="13.89" length="14.95" shape="859.09,868.73 873.92,866.82"/>
    </edge>
    <edge id=":1013783701_4" function="internal">
        <lane id=":1013783701_4_0" index="0" disallow="tram rail_urban rail rail_electric rail_fast ship container cable_car subway aircraft wheelchair scooter drone" speed="7.49" length="4.65" shape="859.09,868.73 863.74,868.76"/>
    </edge>
    <edge id=":1013783701_5" function="internal">
        <lane id=":1013783701_5_0" index="0" disallow="tram rail_urban rail rail_electric rail_fast ship container cable_car subway aircraft wheelchair scooter drone" speed="3.65" length="1.44" shape="859.09,868.73 860.39,869.37"/>
    </edge>
    <edge id=":1013783701_10" function="internal">
        <lane id=":1013783701_10_0" index="0" disallow="tram rail_urban rail rail_electric rail_fast ship container cable_car subway aircraft wheelchair scooter drone" speed="7.49" length="11.28" shape="863.74,868.76 866.67,870.32 867.86,873.41 867.34,878.03"/>
    </edge>
    <edge id=":1013783701_11" function="internal">
        <lane id=":1013783701_11_0" index="0" disallow="tram rail_urban rail rail_electric rail_fast ship container cable_car subway aircraft wheelchair scooter drone" speed="3.65" length="3.23" shape="860.39,869.37 860.89,870.11 860.60,870.95 859.51,871.90"/>
    </edge>
    <edge id=":1013783701_6" function="internal">
        <lane id=":1013783701_6_0" index="0" disallow="tram rail_urban rail rail_electric rail_fast ship container cable_car subway aircraft wheelchair scooter drone" speed="5.83" length="9.13" shape="864.24,877.23 864.54,874.59 863.85,872.81 862.18,871.92 859.51,871.90"/>
    </edge>
    <edge id=":1013783701_7" function="internal">
        <lane id=":1013783701_7_0" index="0" disallow="tram rail_urban rail rail_electric rail_fast ship container cable_car subway aircraft wheelchair scooter drone" speed="9.67" length="15.15" shape="864.24,877.23 865.77,873.01 867.89,869.87 870.61,867.81 873.92,866.82"/>
    </edge>
    <edge id=":1013783701_8" function="internal">
        <lane id=":1013783701_8_0" index="0" disallow="tram rail_urban rail rail_electric rail_fast ship container cable_car subway aircraft wheelchair scooter drone" speed="3.65" length="4.67" shape="864.24,877.23 865.31,876.27 866.19,876.08 866.86,876.67 867.34,878.03"/>
    </edge>
    <edge id=":1013783706_0" function="internal">
        <lane id=":1013783706_0_0" index="0" disallow="tram rail_urban rail rail_electric rail_fast ship container cable_car subway aircraft wheelchair scooter drone" speed="13.89" length="14.77" shape="710.14,828.51 696.37,823.15"/>
    </edge>
    <edge id=":1013783706_1" function="internal">
        <lane id=":1013783706_1_0" index="0" disallow="tram rail_urban rail rail_electric rail_fast ship container cable_car subway aircraft wheelchair scooter drone" speed="9.42" length="3.66" shape="710.14,828.51 707.14,826.73 707.03,826.60"/>
    </edge>
    <edge id=":1013783706_2" function="internal">
        <lane id=":1013783706_2_0" index="0" disallow="tram rail_urban rail rail_electric rail_fast ship container cable_car subway aircraft wheelchair scooter drone" speed="3.65" length="1.44" shape="710.14,828.51 709.31,827.33"/>
    </edge>
    <edge id=":1013783706_9" function="internal">
        <lane id=":1013783706_9_0" index="0" disallow="tram rail_urban rail rail_electric rail_fast ship container cable_car subway aircraft wheelchair scooter drone" speed="9.42" length="11.30" shape="707.03,826.60 705.04,824.09 703.86,820.57 703.59,816.19"/>
    </edge>
    <edge id=":1013783706_10" function="internal">
        <lane id=":1013783706_10_0" index="0" disallow="tram rail_urban rail rail_electric rail_fast ship container cable_car subway aircraft wheelchair scooter drone" speed="3.65" length="3.23" shape="709.31,827.33 709.23,826.44 709.89,825.84 711.30,825.53"/>
    </edge>
    <edge id=":1013783706_3" function="internal">
        <lane id=":1013783706_3_0" index="0" disallow="tram rail_urban rail rail_electric rail_fast ship container cable_car subway aircraft wheelchair scooter drone" speed="8.15" length="10.98" shape="706.79,816.31 706.96,819.65 707.78,822.29 709.22,824.26 711.30,825.53"/>
    </edge>
    <edge id=":1013783706_4" function="internal">
        <lane id=":1013783706_4_0" index="0" disallow="tram rail_urban rail rail_electric rail_fast ship container cable_car subway aircraft wheelchair scooter drone" speed="7.54" length="15.65" shape="706.79,816.31 705.98,820.77 703.98,823.39 700.78,824.19 696.37,823.15"/>
    </edge>
    <edge id=":1013783706_5" function="internal">
        <lane id=":1013783706_5_0" index="0" disallow="tram rail_urban rail rail_electric rail_fast ship container cable_car subway aircraft wheelchair scooter drone" speed="3.65" length="4.67" shape="706.79,816.31 705.94,817.48 705.13,817.85 704.34,817.42 703.59,816.19"/>
    </edge>
    <edge id=":1013783706_6" function="internal">
        <lane id=":1013783706_6_0" index="0" disallow="tram rail_urban rail rail_electric rail_fast ship container cable_car subway aircraft wheelchair scooter drone" speed="5.91" length="9.10" shape="697.53,820.17 700.09,820.77 701.96,820.31 703.12,818.78 703.59,816.19"/>
    </edge>
    <edge id=":1013783706_7" function="internal">
        <lane id=":1013783706_7_0" index="0" disallow="tram rail_urban rail rail_electric rail_fast ship container cable_car subway aircraft wheelchair scooter drone" speed="13.89" length="14.77" shape="697.53,820.17 711.30,825.53"/>
    </edge>
    <edge id=":1013783706_8" function="internal">
        <lane id=":1013783706_8_0" index="0" disallow="tram rail_urban rail rail_electric rail_fast ship container cable_car subway aircraft wheelchair scooter drone" speed="3.65" length="1.44" shape="697.53,820.17 698.36,821.35"/>
    </edge>
    <edge id=":1013783706_11" function="internal">
        <lane id=":1013783706_11_0" index="0" disallow="tram rail_urban rail rail_electric rail_fast ship container cable_car subway aircraft wheelchair scooter drone" speed="3.65" length="3.23" shape="698.36,821.35 698.44,822.24 697.78,822.84 696.37,823.15"/>
    </edge>
    <edge id=":1013783728_0" function="internal">
        <lane id=":1013783728_0_0" index="0" disallow="tram rail_urban rail rail_electric rail_fast ship container cable_car subway aircraft wheelchair scooter drone" speed="3.65" length="4.67" shape="630.11,1349.33 629.01,1348.39 628.71,1347.55 629.20,1346.80 630.49,1346.15"/>
    </edge>
    <edge id=":1013783788_0" function="internal">
        <lane id=":1013783788_0_0" index="0" disallow="tram rail_urban rail rail_electric rail_fast ship container cable_car subway aircraft wheelchair scooter drone" speed="3.65" length="4.67" shape="527.18,1261.01 526.23,1259.93 526.05,1259.05 526.65,1258.38 528.02,1257.92"/>
    </edge>
    <edge id=":1013783806_0" function="internal">