<?xml version="1.0" encoding="UTF-8"?>

<!-- generated on 2025-01-21 15:40:21.199833 by generateParkingAreas.py UNKNOWN
<configuration>
    <net-file value="ufscar/osm.net.xml"/>
    <output-file value="ufscar/park.add.xml"/>
</configuration>
-->

<additional xmlns:xsi="http://www.w3.org/2001/XMLSchema-instance" xsi:noNamespaceSchemaLocation="http://sumo.dlr.de/xsd/additional_file.xsd">
    <parkingArea id="pa-1285875854" lane="-1285875854_0" roadsideCapacity="10" length="5"/>
    <parkingArea id="pa-1349412675#1" lane="-1349412675#1_0" roadsideCapacity="35" length="5"/>
    <parkingArea id="pa-1349412675#2" lane="-1349412675#2_0" roadsideCapacity="28" length="5"/>
    <parkingArea id="pa-189422934#1" lane="-189422934#1_0" roadsideCapacity="27" length="5"/>
    <parkingArea id="pa-189422934#2" lane="-189422934#2_0" roadsideCapacity="9" length="5"/>
    <parkingArea id="pa-189422934#3" lane="-189422934#3_0" roadsideCapacity="10" length="5"/>
    <parkingArea id="pa-189422934#4" lane="-189422934#4_0" roadsideCapacity="3" length="5"/>
    <parkingArea id="pa-189422934#5" lane="-189422934#5_0" roadsideCapacity="1" length="5"/>
    <parkingArea id="pa-189422934#6" lane="-189422934#6_0" roadsideCapacity="9" length="5"/>
    <parkingArea id="pa-189422934#8" lane="-189422934#8_0" roadsideCapacity="61" length="5"/>
    <parkingArea id="pa-189422936#0" lane="-189422936#0_0" roadsideCapacity="7" length="5"/>
    <parkingArea id="pa-189422936#1" lane="-189422936#1_0" roadsideCapacity="4" length="5"/>
    <parkingArea id="pa-189422936#2" lane="-189422936#2_0" roadsideCapacity="19" length="5"/>
    <parkingArea id="pa-220031794" lane="-220031794_0" roadsideCapacity="19" length="5"/>
    <parkingArea id="pa-220031817" lane="-220031817_0" roadsideCapacity="3" length="5"/>
    <parkingArea id="pa-227493792" lane="-227493792_0" roadsideCapacity="5" length="5"/>
    <parkingArea id="pa-227493793" lane="-227493793_0" roadsideCapacity="1" length="5"/>
    <parkingArea id="pa-227493794" lane="-227493794_0" roadsideCapacity="27" length="5"/>
    <parkingArea id="pa-237532644" lane="-237532644_0" roadsideCapacity="11" length="5"/>
    <parkingArea id="pa-237532646" lane="-237532646_0" roadsideCapacity="13" length="5"/>
    <parkingArea id="pa-237532648" lane="-237532648_0" roadsideCapacity="5" length="5"/>
    <parkingArea id="pa-237532649" lane="-237532649_0" roadsideCapacity="14" length="5"/>
    <parkingArea id="pa-237532652#0" lane="-237532652#0_0" roadsideCapacity="1" length="5"/>
    <parkingArea id="pa-237532652#1" lane="-237532652#1_0" roadsideCapacity="3" length="5"/>
    <parkingArea id="pa-237532657#0" lane="-237532657#0_0" roadsideCapacity="4" length="5"/>
    <parkingArea id="pa-237532657#1" lane="-237532657#1_0" roadsideCapacity="11" length="5"/>
    <parkingArea id="pa-237847742" lane="-237847742_0" roadsideCapacity="197" length="5"/>
    <parkingArea id="pa-237847888" lane="-237847888_0" roadsideCapacity="6" length="5"/>
    <parkingArea id="pa-237847952" lane="-237847952_0" roadsideCapacity="108" length="5"/>
    <parkingArea id="pa-237862570" lane="-237862570_0" roadsideCapacity="32" length="5"/>
    <parkingArea id="pa-237862583" lane="-237862583_0" roadsideCapacity="6" length="5"/>
    <parkingArea id="pa-237862587" lane="-237862587_0" roadsideCapacity="27" length="5"/>
    <parkingArea id="pa-238376111" lane="-238376111_0" roadsideCapacity="2" length="5"/>
    <parkingArea id="pa-238376112" lane="-238376112_0" roadsideCapacity="3" length="5"/>
    <parkingArea id="pa-238376113" lane="-238376113_0" roadsideCapacity="1" length="5"/>
    <parkingArea id="pa-238376114#0" lane="-238376114#0_0" roadsideCapacity="47" length="5"/>
    <parkingArea id="pa-238376119" lane="-238376119_0" roadsideCapacity="10" length="5"/>
    <parkingArea id="pa-238376124" lane="-238376124_0" roadsideCapacity="41" length="5"/>
    <parkingArea id="pa-238376133#2" lane="-238376133#2_0" roadsideCapacity="43" length="5"/>
    <parkingArea id="pa-238376133#3" lane="-238376133#3_0" roadsideCapacity="17" length="5"/>
    <parkingArea id="pa-238376144#0" lane="-238376144#0_0" roadsideCapacity="10" length="5"/>
    <parkingArea id="pa-238376144#1" lane="-238376144#1_0" roadsideCapacity="9" length="5"/>
    <parkingArea id="pa-238376144#2" lane="-238376144#2_0" roadsideCapacity="10" length="5"/>
    <parkingArea id="pa-238376144#3" lane="-238376144#3_0" roadsideCapacity="7" length="5"/>
    <parkingArea id="pa-238376144#5" lane="-238376144#5_0" roadsideCapacity="7" length="5"/>
    <parkingArea id="pa-238376147#0" lane="-238376147#0_0" roadsideCapacity="25" length="5"/>
    <parkingArea id="pa-238376147#1" lane="-238376147#1_0" roadsideCapacity="20" length="5"/>
    <parkingArea id="pa-238376156" lane="-238376156_0" roadsideCapacity="34" length="5"/>
    <parkingArea id="pa-238376157" lane="-238376157_0" roadsideCapacity="8" length="5"/>
    <parkingArea id="pa-238376170" lane="-238376170_0" roadsideCapacity="28" length="5"/>
    <parkingArea id="pa-238376172" lane="-238376172_0" roadsideCapacity="11" length="5"/>
    <parkingArea id="pa-238376174" lane="-238376174_0" roadsideCapacity="13" length="5"/>
    <parkingArea id="pa-238376182#0" lane="-238376182#0_0" roadsideCapacity="11" length="5"/>
    <parkingArea id="pa-238376183" lane="-238376183_0" roadsideCapacity="13" length="5"/>
    <parkingArea id="pa-238376185" lane="-238376185_0" roadsideCapacity="10" length="5"/>
    <parkingArea id="pa-238376186" lane="-238376186_0" roadsideCapacity="17" length="5"/>
    <parkingArea id="pa-238376204#0" lane="-238376204#0_0" roadsideCapacity="3" length="5"/>
    <parkingArea id="pa-238376204#1" lane="-238376204#1_0" roadsideCapacity="24" length="5"/>
    <parkingArea id="pa-238376207#1" lane="-238376207#1_0" roadsideCapacity="89" length="5"/>
    <parkingArea id="pa-238376217#0" lane="-238376217#0_0" roadsideCapacity="26" length="5"/>
    <parkingArea id="pa-238376217#1" lane="-238376217#1_0" roadsideCapacity="9" length="5"/>
    <parkingArea id="pa-238376223#0" lane="-238376223#0_0" roadsideCapacity="8" length="5"/>
    <parkingArea id="pa-238376223#1" lane="-238376223#1_0" roadsideCapacity="8" length="5"/>
    <parkingArea id="pa-238376223#2" lane="-238376223#2_0" roadsideCapacity="9" length="5"/>
    <parkingArea id="pa-238376224" lane="-238376224_0" roadsideCapacity="19" length="5"/>
    <parkingArea id="pa-238376239#0" lane="-238376239#0_0" roadsideCapacity="7" length="5"/>
    <parkingArea id="pa-238376239#1" lane="-238376239#1_0" roadsideCapacity="13" length="5"/>
    <parkingArea id="pa-258816384" lane="-258816384_0" roadsideCapacity="39" length="5"/>
    <parkingArea id="pa-264549807" lane="-264549807_0" roadsideCapacity="33" length="5"/>
    <parkingArea id="pa-274062278#1" lane="-274062278#1_0" roadsideCapacity="16" length="5"/>
    <parkingArea id="pa-279577148" lane="-279577148_0" roadsideCapacity="24" length="5"/>
    <parkingArea id="pa-285274476" lane="-285274476_0" roadsideCapacity="13" length="5"/>
    <parkingArea id="pa-297724830" lane="-297724830_0" roadsideCapacity="17" length="5"/>
    <parkingArea id="pa-354660207" lane="-354660207_0" roadsideCapacity="19" length="5"/>
    <parkingArea id="pa-364449967#0" lane="-364449967#0_0" roadsideCapacity="31" length="5"/>
    <parkingArea id="pa-364449967#1" lane="-364449967#1_0" roadsideCapacity="24" length="5"/>
    <parkingArea id="pa-364449967#2" lane="-364449967#2_0" roadsideCapacity="9" length="5"/>
    <parkingArea id="pa-366484189#0" lane="-366484189#0_0" roadsideCapacity="7" length="5"/>
    <parkingArea id="pa-366484189#1" lane="-366484189#1_0" roadsideCapacity="12" length="5"/>
    <parkingArea id="pa-366484189#2" lane="-366484189#2_0" roadsideCapacity="8" length="5"/>
    <parkingArea id="pa-366484189#3" lane="-366484189#3_0" roadsideCapacity="90" length="5"/>
    <parkingArea id="pa-391465208" lane="-391465208_0" roadsideCapacity="12" length="5"/>
    <parkingArea id="pa-402752410" lane="-402752410_0" roadsideCapacity="27" length="5"/>
    <parkingArea id="pa-402752559" lane="-402752559_0" roadsideCapacity="39" length="5"/>
    <parkingArea id="pa-40520969" lane="-40520969_0" roadsideCapacity="3" length="5"/>
    <parkingArea id="pa-40652485#0" lane="-40652485#0_0" roadsideCapacity="24" length="5"/>
    <parkingArea id="pa-40652485#1" lane="-40652485#1_0" roadsideCapacity="6" length="5"/>
    <parkingArea id="pa-40652485#2" lane="-40652485#2_0" roadsideCapacity="14" length="5"/>
    <parkingArea id="pa-40818003" lane="-40818003_0" roadsideCapacity="57" length="5"/>
    <parkingArea id="pa-41227410" lane="-41227410_0" roadsideCapacity="5" length="5"/>
    <parkingArea id="pa-41438380#0" lane="-41438380#0_0" roadsideCapacity="9" length="5"/>
    <parkingArea id="pa-41438380#1" lane="-41438380#1_0" roadsideCapacity="25" length="5"/>
    <parkingArea id="pa-41438380#2" lane="-41438380#2_0" roadsideCapacity="181" length="5"/>
    <parkingArea id="pa-41438542#2" lane="-41438542#2_0" roadsideCapacity="19" length="5"/>
    <parkingArea id="pa-41438583#2" lane="-41438583#2_0" roadsideCapacity="18" length="5"/>
    <parkingArea id="pa-41438599" lane="-41438599_0" roadsideCapacity="15" length="5"/>
    <parkingArea id="pa-41438667#3" lane="-41438667#3_0" roadsideCapacity="23" length="5"/>
    <parkingArea id="pa-41438713" lane="-41438713_0" roadsideCapacity="4" length="5"/>
    <parkingArea id="pa-41438721" lane="-41438721_0" roadsideCapacity="40" length="5"/>
    <parkingArea id="pa-42118603#0" lane="-42118603#0_0" roadsideCapacity="12" length="5"/>
    <parkingArea id="pa-430879927#0" lane="-430879927#0_0" roadsideCapacity="26" length="5"/>
    <parkingArea id="pa-430879927#1" lane="-430879927#1_0" roadsideCapacity="17" length="5"/>
    <parkingArea id="pa-430879927#2" lane="-430879927#2_0" roadsideCapacity="1763" length="5"/>
    <parkingArea id="pa-43159188#0" lane="-43159188#0_0" roadsideCapacity="31" length="5"/>
    <parkingArea id="pa-55937248" lane="-55937248_0" roadsideCapacity="9" length="5"/>
    <parkingArea id="pa-56063744" lane="-56063744_0" roadsideCapacity="10" length="5"/>
    <parkingArea id="pa-56670963#0" lane="-56670963#0_0" roadsideCapacity="64" length="5"/>
    <parkingArea id="pa-56670963#1" lane="-56670963#1_0" roadsideCapacity="32" length="5"/>
    <parkingArea id="pa-56670967" lane="-56670967_0" roadsideCapacity="12" length="5"/>
    <parkingArea id="pa-656799512" lane="-656799512_0" roadsideCapacity="8" length="5"/>
    <parkingArea id="pa-656799517#0" lane="-656799517#0_0" roadsideCapacity="59" length="5"/>
    <parkingArea id="pa-656799517#1" lane="-656799517#1_0" roadsideCapacity="8" length="5"/>
    <parkingArea id="pa-656799517#2" lane="-656799517#2_0" roadsideCapacity="11" length="5"/>
    <parkingArea id="pa-656799517#3" lane="-656799517#3_0" roadsideCapacity="12" length="5"/>
    <parkingArea id="pa-656799520#0" lane="-656799520#0_0" roadsideCapacity="51" length="5"/>
    <parkingArea id="pa-656799521#0" lane="-656799521#0_0" roadsideCapacity="19" length="5"/>
    <parkingArea id="pa-656799521#1" lane="-656799521#1_0" roadsideCapacity="12" length="5"/>
    <parkingArea id="pa-656799525" lane="-656799525_0" roadsideCapacity="7" length="5"/>
    <parkingArea id="pa-656799527" lane="-656799527_0" roadsideCapacity="7" length="5"/>
    <parkingArea id="pa-656799529#0" lane="-656799529#0_0" roadsideCapacity="7" length="5"/>
    <parkingArea id="pa-656799529#1" lane="-656799529#1_0" roadsideCapacity="8" length="5"/>
    <parkingArea id="pa-656799530#0" lane="-656799530#0_0" roadsideCapacity="7" length="5"/>
    <parkingArea id="pa-656799530#1" lane="-656799530#1_0" roadsideCapacity="8" length="5"/>
    <parkingArea id="pa-656799531#0" lane="-656799531#0_0" roadsideCapacity="14" length="5"/>
    <parkingArea id="pa-656799531#1" lane="-656799531#1_0" roadsideCapacity="22" length="5"/>
    <parkingArea id="pa-656799531#2" lane="-656799531#2_0" roadsideCapacity="6" length="5"/>
    <parkingArea id="pa-656799531#3" lane="-656799531#3_0" roadsideCapacity="8" length="5"/>
    <parkingArea id="pa-656799531#4" lane="-656799531#4_0" roadsideCapacity="7" length="5"/>
    <parkingArea id="pa-656799532" lane="-656799532_0" roadsideCapacity="36" length="5"/>
    <parkingArea id="pa-656799533#0" lane="-656799533#0_0" roadsideCapacity="12" length="5"/>
    <parkingArea id="pa-656799533#1" lane="-656799533#1_0" roadsideCapacity="5" length="5"/>
    <parkingArea id="pa-656799533#2" lane="-656799533#2_0" roadsideCapacity="13" length="5"/>
    <parkingArea id="pa-656799534#0" lane="-656799534#0_0" roadsideCapacity="17" length="5"/>
    <parkingArea id="pa-656799534#3" lane="-656799534#3_0" roadsideCapacity="14" length="5"/>
    <parkingArea id="pa-656799535#0" lane="-656799535#0_0" roadsideCapacity="23" length="5"/>
    <parkingArea id="pa-656799535#1" lane="-656799535#1_0" roadsideCapacity="18" length="5"/>
    <parkingArea id="pa-656799536#0" lane="-656799536#0_0" roadsideCapacity="34" length="5"/>
    <parkingArea id="pa-656799536#1" lane="-656799536#1_0" roadsideCapacity="14" length="5"/>
    <parkingArea id="pa-656799536#2" lane="-656799536#2_0" roadsideCapacity="17" length="5"/>
    <parkingArea id="pa-656799538#0" lane="-656799538#0_0" roadsideCapacity="62" length="5"/>
    <parkingArea id="pa-656799538#1" lane="-656799538#1_0" roadsideCapacity="12" length="5"/>
    <parkingArea id="pa-656799538#2" lane="-656799538#2_0" roadsideCapacity="9" length="5"/>
    <parkingArea id="pa-656799538#3" lane="-656799538#3_0" roadsideCapacity="8" length="5"/>
    <parkingArea id="pa-656799538#4" lane="-656799538#4_0" roadsideCapacity="8" length="5"/>
    <parkingArea id="pa-656799553#0" lane="-656799553#0_0" roadsideCapacity="14" length="5"/>
    <parkingArea id="pa-656799553#1" lane="-656799553#1_0" roadsideCapacity="16" length="5"/>
    <parkingArea id="pa-656799554#0" lane="-656799554#0_0" roadsideCapacity="18" length="5"/>
    <parkingArea id="pa-656799554#1" lane="-656799554#1_0" roadsideCapacity="14" length="5"/>
    <parkingArea id="pa-656799555#0" lane="-656799555#0_0" roadsideCapacity="8" length="5"/>
    <parkingArea id="pa-656799555#1" lane="-656799555#1_0" roadsideCapacity="8" length="5"/>
    <parkingArea id="pa-656799555#2" lane="-656799555#2_0" roadsideCapacity="7" length="5"/>
    <parkingArea id="pa-656799557#0" lane="-656799557#0_0" roadsideCapacity="11" length="5"/>
    <parkingArea id="pa-656799557#1" lane="-656799557#1_0" roadsideCapacity="9" length="5"/>
    <parkingArea id="pa-656799560#0" lane="-656799560#0_0" roadsideCapacity="34" length="5"/>
    <parkingArea id="pa-656799560#1" lane="-656799560#1_0" roadsideCapacity="24" length="5"/>
    <parkingArea id="pa-656799560#2" lane="-656799560#2_0" roadsideCapacity="10" length="5"/>
    <parkingArea id="pa-656799560#3" lane="-656799560#3_0" roadsideCapacity="6" length="5"/>
    <parkingArea id="pa-656799560#4" lane="-656799560#4_0" roadsideCapacity="36" length="5"/>
    <parkingArea id="pa-656799563#0" lane="-656799563#0_0" roadsideCapacity="4" length="5"/>
    <parkingArea id="pa-656799563#1" lane="-656799563#1_0" roadsideCapacity="16" length="5"/>
    <parkingArea id="pa-656799563#2" lane="-656799563#2_0" roadsideCapacity="3" length="5"/>
    <parkingArea id="pa-656799565#0" lane="-656799565#0_0" roadsideCapacity="33" length="5"/>
    <parkingArea id="pa-656799565#1" lane="-656799565#1_0" roadsideCapacity="9" length="5"/>
    <parkingArea id="pa-656799565#2" lane="-656799565#2_0" roadsideCapacity="10" length="5"/>
    <parkingArea id="pa-656799565#3" lane="-656799565#3_0" roadsideCapacity="14" length="5"/>
    <parkingArea id="pa-667058935" lane="-667058935_0" roadsideCapacity="6" length="5"/>
    <parkingArea id="pa-667572877#2" lane="-667572877#2_0" roadsideCapacity="65" length="5"/>
    <parkingArea id="pa-70461445#0" lane="-70461445#0_0" roadsideCapacity="125" length="5"/>
    <parkingArea id="pa-70461445#1" lane="-70461445#1_0" roadsideCapacity="10" length="5"/>
    <parkingArea id="pa-70461445#2" lane="-70461445#2_0" roadsideCapacity="5" length="5"/>
    <parkingArea id="pa-773861047" lane="-773861047_0" roadsideCapacity="44" length="5"/>
    <parkingArea id="pa-773861053" lane="-773861053_0" roadsideCapacity="8" length="5"/>
    <parkingArea id="pa-83612836#0" lane="-83612836#0_0" roadsideCapacity="8" length="5"/>
    <parkingArea id="pa-83612836#1" lane="-83612836#1_0" roadsideCapacity="28" length="5"/>
    <parkingArea id="pa-84820633#0" lane="-84820633#0_0" roadsideCapacity="28" length="5"/>
    <parkingArea id="pa-84820633#1" lane="-84820633#1_0" roadsideCapacity="13" length="5"/>
    <parkingArea id="pa-84820633#2" lane="-84820633#2_0" roadsideCapacity="28" length="5"/>
    <parkingArea id="pa-84820637" lane="-84820637_0" roadsideCapacity="15" length="5"/>
    <parkingArea id="pa-848284395" lane="-848284395_0" roadsideCapacity="29" length="5"/>
    <parkingArea id="pa-848284396" lane="-848284396_0" roadsideCapacity="28" length="5"/>
    <parkingArea id="pa-848288494" lane="-848288494_0" roadsideCapacity="9" length="5"/>
    <parkingArea id="pa-85526147" lane="-85526147_0" roadsideCapacity="108" length="5"/>
    <parkingArea id="pa-85587679" lane="-85587679_0" roadsideCapacity="22" length="5"/>
    <parkingArea id="pa-87181325" lane="-87181325_0" roadsideCapacity="22" length="5"/>
    <parkingArea id="pa-87181329" lane="-87181329_0" roadsideCapacity="28" length="5"/>
    <parkingArea id="pa-87181335#0" lane="-87181335#0_0" roadsideCapacity="28" length="5"/>
    <parkingArea id="pa-87181335#2" lane="-87181335#2_0" roadsideCapacity="17" length="5"/>
    <parkingArea id="pa-87181339" lane="-87181339_0" roadsideCapacity="23" length="5"/>
    <parkingArea id="pa-87181347#0" lane="-87181347#0_0" roadsideCapacity="7" length="5"/>
    <parkingArea id="pa-87181347#1" lane="-87181347#1_0" roadsideCapacity="7" length="5"/>
    <parkingArea id="pa-87181347#2" lane="-87181347#2_0" roadsideCapacity="7" length="5"/>
    <parkingArea id="pa-87181347#3" lane="-87181347#3_0" roadsideCapacity="7" length="5"/>
    <parkingArea id="pa-87181347#4" lane="-87181347#4_0" roadsideCapacity="8" length="5"/>
    <parkingArea id="pa-87181347#5" lane="-87181347#5_0" roadsideCapacity="10" length="5"/>
    <parkingArea id="pa-87181397#0" lane="-87181397#0_0" roadsideCapacity="28" length="5"/>
    <parkingArea id="pa-87181397#1" lane="-87181397#1_0" roadsideCapacity="7" length="5"/>
    <parkingArea id="pa-87212003#0" lane="-87212003#0_0" roadsideCapacity="6" length="5"/>
    <parkingArea id="pa-87212003#1" lane="-87212003#1_0" roadsideCapacity="9" length="5"/>
    <parkingArea id="pa-87212027#0" lane="-87212027#0_0" roadsideCapacity="11" length="5"/>
    <parkingArea id="pa-87212027#1" lane="-87212027#1_0" roadsideCapacity="20" length="5"/>
    <parkingArea id="pa-87212066#0" lane="-87212066#0_0" roadsideCapacity="12" length="5"/>
    <parkingArea id="pa-87212066#1" lane="-87212066#1_0" roadsideCapacity="69" length="5"/>
    <parkingArea id="pa-87212075#0" lane="-87212075#0_0" roadsideCapacity="23" length="5"/>
    <parkingArea id="pa-87212075#1" lane="-87212075#1_0" roadsideCapacity="9" length="5"/>
    <parkingArea id="pa-87212075#2" lane="-87212075#2_0" roadsideCapacity="9" length="5"/>
    <parkingArea id="pa-87212075#3" lane="-87212075#3_0" roadsideCapacity="9" length="5"/>
    <parkingArea id="pa-876072439" lane="-876072439_0" roadsideCapacity="4" length="5"/>
    <parkingArea id="pa-876072441" lane="-876072441_0" roadsideCapacity="28" length="5"/>
    <parkingArea id="pa-905782210" lane="-905782210_0" roadsideCapacity="7" length="5"/>
    <parkingArea id="pa-91518036#0" lane="-91518036#0_0" roadsideCapacity="10" length="5"/>
    <parkingArea id="pa-91518036#1" lane="-91518036#1_0" roadsideCapacity="9" length="5"/>
    <parkingArea id="pa-91518036#2" lane="-91518036#2_0" roadsideCapacity="9" length="5"/>
    <parkingArea id="pa-91518036#3" lane="-91518036#3_0" roadsideCapacity="23" length="5"/>
    <parkingArea id="pa-94338555" lane="-94338555_0" roadsideCapacity="1" length="5"/>
    <parkingArea id="pa-95827728" lane="-95827728_0" roadsideCapacity="125" length="5"/>
    <parkingArea id="pa-95827734#0" lane="-95827734#0_0" roadsideCapacity="10" length="5"/>
    <parkingArea id="pa-95827734#1" lane="-95827734#1_0" roadsideCapacity="15" length="5"/>
    <parkingArea id="pa-95827738#0" lane="-95827738#0_0" roadsideCapacity="11" length="5"/>
    <parkingArea id="pa-95827738#1" lane="-95827738#1_0" roadsideCapacity="14" length="5"/>
    <parkingArea id="pa-95933113#0" lane="-95933113#0_0" roadsideCapacity="3" length="5"/>
    <parkingArea id="pa-95933113#1" lane="-95933113#1_0" roadsideCapacity="9" length="5"/>
    <parkingArea id="pa-96577611" lane="-96577611_0" roadsideCapacity="23" length="5"/>
    <parkingArea id="pa-96577612" lane="-96577612_0" roadsideCapacity="14" length="5"/>
    <parkingArea id="pa-96577614#0" lane="-96577614#0_0" roadsideCapacity="26" length="5"/>
    <parkingArea id="pa-96577614#2" lane="-96577614#2_0" roadsideCapacity="25" length="5"/>
    <parkingArea id="pa-96577617#1" lane="-96577617#1_0" roadsideCapacity="46" length="5"/>
    <parkingArea id="pa-96577619" lane="-96577619_0" roadsideCapacity="24" length="5"/>
    <parkingArea id="pa-96577621" lane="-96577621_0" roadsideCapacity="39" length="5"/>
    <parkingArea id="pa-96577622#0" lane="-96577622#0_0" roadsideCapacity="7" length="5"/>
    <parkingArea id="pa-96577622#1" lane="-96577622#1_0" roadsideCapacity="10" length="5"/>
    <parkingArea id="pa-96577622#2" lane="-96577622#2_0" roadsideCapacity="8" length="5"/>
    <parkingArea id="pa-96721299" lane="-96721299_0" roadsideCapacity="26" length="5"/>
    <parkingArea id="pa-96721302" lane="-96721302_0" roadsideCapacity="16" length="5"/>
    <parkingArea id="pa-96721305" lane="-96721305_0" roadsideCapacity="6" length="5"/>
    <parkingArea id="pa-96721310#0" lane="-96721310#0_0" roadsideCapacity="10" length="5"/>
    <parkingArea id="pa-96721310#1" lane="-96721310#1_0" roadsideCapacity="9" length="5"/>
    <parkingArea id="pa-973766008" lane="-973766008_0" roadsideCapacity="1" length="5"/>
    <parkingArea id="pa1168530282" lane="1168530282_0" roadsideCapacity="10" length="5"/>
    <parkingArea id="pa1285875854" lane="1285875854_0" roadsideCapacity="10" length="5"/>
    <parkingArea id="pa1349412675#0" lane="1349412675#0_0" roadsideCapacity="35" length="5"/>
    <parkingArea id="pa1349412675#2" lane="1349412675#2_0" roadsideCapacity="28" length="5"/>
    <parkingArea id="pa156651695#0" lane="156651695#0_0" roadsideCapacity="80" length="5"/>
    <parkingArea id="pa156651695#0-AddedOffRampEdge" lane="156651695#0-AddedOffRampEdge_0" roadsideCapacity="15" length="5"/>
    <parkingArea id="pa156651695#2" lane="156651695#2_0" roadsideCapacity="106" length="5"/>
    <parkingArea id="pa189422934#2" lane="189422934#2_0" roadsideCapacity="9" length="5"/>
    <parkingArea id="pa189422934#3" lane="189422934#3_0" roadsideCapacity="10" length="5"/>
    <parkingArea id="pa189422934#4" lane="189422934#4_0" roadsideCapacity="3" length="5"/>
    <parkingArea id="pa189422934#5" lane="189422934#5_0" roadsideCapacity="1" length="5"/>
    <parkingArea id="pa189422934#6" lane="189422934#6_0" roadsideCapacity="9" length="5"/>
    <parkingArea id="pa189422934#8" lane="189422934#8_0" roadsideCapacity="61" length="5"/>
    <parkingArea id="pa189422936#1" lane="189422936#1_0" roadsideCapacity="4" length="5"/>
    <parkingArea id="pa189422936#2" lane="189422936#2_0" roadsideCapacity="19" length="5"/>
    <parkingArea id="pa218728083" lane="218728083_0" roadsideCapacity="3" length="5"/>
    <parkingArea id="pa220031754" lane="220031754_0" roadsideCapacity="31" length="5"/>
    <parkingArea id="pa220031762#0" lane="220031762#0_0" roadsideCapacity="40" length="5"/>
    <parkingArea id="pa220031762#4" lane="220031762#4_0" roadsideCapacity="1" length="5"/>
    <parkingArea id="pa220031762#5" lane="220031762#5_0" roadsideCapacity="3" length="5"/>
    <parkingArea id="pa220031784#0" lane="220031784#0_0" roadsideCapacity="43" length="5"/>
    <parkingArea id="pa220031784#1" lane="220031784#1_0" roadsideCapacity="13" length="5"/>
    <parkingArea id="pa220031784#2" lane="220031784#2_0" roadsideCapacity="20" length="5"/>
    <parkingArea id="pa220031784#3" lane="220031784#3_0" roadsideCapacity="2" length="5"/>
    <parkingArea id="pa220031784#4" lane="220031784#4_0" roadsideCapacity="3" length="5"/>
    <parkingArea id="pa220031784#5" lane="220031784#5_0" roadsideCapacity="13" length="5"/>
    <parkingArea id="pa220031785" lane="220031785_0" roadsideCapacity="52" length="5"/>
    <parkingArea id="pa220031786" lane="220031786_0" roadsideCapacity="40" length="5"/>
    <parkingArea id="pa220031794" lane="220031794_0" roadsideCapacity="19" length="5"/>
    <parkingArea id="pa220031805" lane="220031805_0" roadsideCapacity="5" length="5"/>
    <parkingArea id="pa220031810" lane="220031810_0" roadsideCapacity="5" length="5"/>
    <parkingArea id="pa220031817" lane="220031817_0" roadsideCapacity="3" length="5"/>
    <parkingArea id="pa227493792" lane="227493792_0" roadsideCapacity="5" length="5"/>
    <parkingArea id="pa227493793" lane="227493793_0" roadsideCapacity="1" length="5"/>
    <parkingArea id="pa227493794" lane="227493794_0" roadsideCapacity="27" length="5"/>
    <parkingArea id="pa227493795#0" lane="227493795#0_0" roadsideCapacity="53" length="5"/>
    <parkingArea id="pa227493795#3" lane="227493795#3_0" roadsideCapacity="11" length="5"/>
    <parkingArea id="pa227493796#0" lane="227493796#0_0" roadsideCapacity="13" length="5"/>
    <parkingArea id="pa227493796#1" lane="227493796#1_0" roadsideCapacity="20" length="5"/>
    <parkingArea id="pa227493796#2" lane="227493796#2_0" roadsideCapacity="12" length="5"/>
    <parkingArea id="pa227493796#3" lane="227493796#3_0" roadsideCapacity="9" length="5"/>
    <parkingArea id="pa227493796#4" lane="227493796#4_0" roadsideCapacity="36" length="5"/>
    <parkingArea id="pa227493802" lane="227493802_0" roadsideCapacity="1" length="5"/>
    <parkingArea id="pa227493803#2" lane="227493803#2_0" roadsideCapacity="7" length="5"/>
    <parkingArea id="pa227493803#3" lane="227493803#3_0" roadsideCapacity="2" length="5"/>
    <parkingArea id="pa227493803#4" lane="227493803#4_0" roadsideCapacity="2" length="5"/>
    <parkingArea id="pa227493803#6" lane="227493803#6_0" roadsideCapacity="3" length="5"/>
    <parkingArea id="pa227493803#7" lane="227493803#7_0" roadsideCapacity="1" length="5"/>
    <parkingArea id="pa227493805" lane="227493805_0" roadsideCapacity="5" length="5"/>
    <parkingArea id="pa227493806" lane="227493806_0" roadsideCapacity="38" length="5"/>
    <parkingArea id="pa237532644" lane="237532644_0" roadsideCapacity="12" length="5"/>
    <parkingArea id="pa237532646" lane="237532646_0" roadsideCapacity="13" length="5"/>
    <parkingArea id="pa237532648" lane="237532648_0" roadsideCapacity="5" length="5"/>
    <parkingArea id="pa237532649" lane="237532649_0" roadsideCapacity="14" length="5"/>
    <parkingArea id="pa237532652#0" lane="237532652#0_0" roadsideCapacity="1" length="5"/>
    <parkingArea id="pa237532652#1" lane="237532652#1_0" roadsideCapacity="3" length="5"/>
    <parkingArea id="pa237532653" lane="237532653_0" roadsideCapacity="14" length="5"/>
    <parkingArea id="pa237532657#0" lane="237532657#0_0" roadsideCapacity="4" length="5"/>
    <parkingArea id="pa237532657#1" lane="237532657#1_0" roadsideCapacity="12" length="5"/>
    <parkingArea id="pa237847742" lane="237847742_0" roadsideCapacity="196" length="5"/>
    <parkingArea id="pa237847766#2" lane="237847766#2_0" roadsideCapacity="3" length="5"/>
    <parkingArea id="pa237847766#4" lane="237847766#4_0" roadsideCapacity="2" length="5"/>
    <parkingArea id="pa237847766#5" lane="237847766#5_0" roadsideCapacity="4" length="5"/>
    <parkingArea id="pa237847766#6" lane="237847766#6_0" roadsideCapacity="4" length="5"/>
    <parkingArea id="pa237847767" lane="237847767_0" roadsideCapacity="98" length="5"/>
    <parkingArea id="pa237847824" lane="237847824_0" roadsideCapacity="102" length="5"/>
    <parkingArea id="pa237847857" lane="237847857_0" roadsideCapacity="5" length="5"/>
    <parkingArea id="pa237847866" lane="237847866_0" roadsideCapacity="3" length="5"/>
    <parkingArea id="pa237847883" lane="237847883_0" roadsideCapacity="5" length="5"/>
    <parkingArea id="pa237847884" lane="237847884_0" roadsideCapacity="16" length="5"/>
    <parkingArea id="pa237847888" lane="237847888_0" roadsideCapacity="6" length="5"/>
    <parkingArea id="pa237847958" lane="237847958_0" roadsideCapacity="35" length="5"/>
    <parkingArea id="pa237847960" lane="237847960_0" roadsideCapacity="55" length="5"/>
    <parkingArea id="pa237847962" lane="237847962_0" roadsideCapacity="63" length="5"/>
    <parkingArea id="pa237862570" lane="237862570_0" roadsideCapacity="32" length="5"/>
    <parkingArea id="pa237862571" lane="237862571_0" roadsideCapacity="1" length="5"/>
    <parkingArea id="pa237862573" lane="237862573_0" roadsideCapacity="2" length="5"/>
    <parkingArea id="pa237862574" lane="237862574_0" roadsideCapacity="2" length="5"/>
    <parkingArea id="pa237862578" lane="237862578_0" roadsideCapacity="1" length="5"/>
    <parkingArea id="pa237862579" lane="237862579_0" roadsideCapacity="1" length="5"/>
    <parkingArea id="pa237862580" lane="237862580_0" roadsideCapacity="1" length="5"/>
    <parkingArea id="pa237862582" lane="237862582_0" roadsideCapacity="1" length="5"/>
    <parkingArea id="pa237862583" lane="237862583_0" roadsideCapacity="6" length="5"/>
    <parkingArea id="pa237862587" lane="237862587_0" roadsideCapacity="27" length="5"/>
    <parkingArea id="pa238376109#0" lane="238376109#0_0" roadsideCapacity="1" length="5"/>
    <parkingArea id="pa238376109#1" lane="238376109#1_0" roadsideCapacity="23" length="5"/>
    <parkingArea id="pa238376110" lane="238376110_0" roadsideCapacity="1" length="5"/>