<?xml version="1.0" encoding="UTF-8"?>

<!-- generated on 2025-01-21 17:02:02.794237 by randomTrips.py UNKNOWN
<configuration>
    <net-file value="ufscar/osm.net.xml"/>
    <additional-files value="ufscar/park.add.xml"/>
    <output-trip-file value="ufscar/randtrips.trips.xml"/>
    <route-file value="ufscar/randtrips.rou.xml"/>
    <vehicle-class value="passenger"/>
    <validate value="True"/>
    <end value="10.0"/>
</configuration>
-->

<!-- generated on 2025-01-21 17:02:02 by Eclipse SUMO duarouter Version 1.21.0
<duarouterConfiguration xmlns:xsi="http://www.w3.org/2001/XMLSchema-instance" xsi:noNamespaceSchemaLocation="http://sumo.dlr.de/xsd/duarouterConfiguration.xsd">

    <input>
        <net-file value="ufscar/osm.net.xml"/>
        <additional-files value="ufscar/park.add.xml"/>
        <route-files value="ufscar/randtrips.trips.xml"/>
    </input>

    <output>
        <output-file value="ufscar/randtrips.rou.xml"/>
        <alternatives-output value="NUL"/>
    </output>

    <time>
        <begin value="0"/>
        <end value="10.0"/>
    </time>

    <report>
        <no-warnings value="true"/>
        <ignore-errors value="true"/>
        <no-step-log value="true"/>
    </report>

</duarouterConfiguration>
-->

<routes xmlns:xsi="http://www.w3.org/2001/XMLSchema-instance" xsi:noNamespaceSchemaLocation="http://sumo.dlr.de/xsd/routes_file.xsd">
    <vType id="passenger" vClass="passenger"/>
    <vehicle id="0" type="passenger" depart="0.00">
        <route edges="41227410 220031785 56063750#2 56063750#3 56063750#4 227493806 40587590#4 40587590#5 40587590#6 40587590#1 40587593 227493803#2 227493803#3 227493803#4 227493803#5 85587674 285274478#3 285274490 285274476 285274498 55936633#0 55936633#1 -237532646"/>
    </vehicle>
    <vehicle id="1" type="passenger" depart="1.00">
        <route edges="-95827734#0 905782211#1 220031762#0 220031762#4 220031762#5 48530553#0 40818502#0 40818502#0-AddedOffRampEdge 40818502#1 -41227410 -56063744 -227493793 -227493792 -227493794 238376118#0 238376118#0-AddedOffRampEdge 40818359 70461432#2 70461432#3 70461432#4 70461432#5 96722456 85587734 -848288494"/>
    </vehicle>
    <vehicle id="2" type="passenger" depart="2.00">
        <route edges="56063750#1 56063750#2 220031786 -41227410 -56063744 -227493793 -227493792 -227493794 238376118#0 238376118#0-AddedOffRampEdge 40818359 70461432#2 85587732 -237847888 237847883 838525359 40818005#2 40818005#3 40818005#4 41438680 237862587 237862580 41438534#6 237862577 237862583 238376206 41438527#5 41438527#6 41438527#1 41438598"/>
    </vehicle>
    <vehicle id="3" type="passenger" depart="3.00">
        <route edges="87187527 238376118#0 238376118#0-AddedOffRampEdge 40818359 70461432#2 85587732 -237847888 237847883 838525359 40818005#2 85587733 -237862570 40818071 40818007#1 237862579 -238376172 238376201 40818012#1 40818035 -274062278#1 -274062294"/>
    </vehicle>
    <vehicle id="4" type="passenger" depart="4.00">
        <route edges="238376121 -41438583#2 41438483#3 85956361#0 238376151#3 55936634#0 55936634#1 55936634#2 55936634#3 55936634#4 40818012#5 40818043 238376172 237862576 40818007#3 40818007#4 40818007#5 237862581 237862570 237862571 40818005#4 40818005#5 40818005#6 40818079 264550011 237847888 237847866 70461432#4 70461432#5 96722456 85587734 85587735 40818091#1 40818091#2 40818091#3 40818091#4 237847958 237847766#3 237847766#4 237847766#5 237847767 354660196#3 354660196#4 354660196#5 364449968 476660218 40652485#1 -237532648 -237532657#0 -237532652#0"/>
    </vehicle>
    <vehicle id="5" type="passenger" depart="5.00">
        <route edges="-667058935 238376109#1 41438483#5 41438540 41438475#5 41438475#6 238376227"/>
    </vehicle>
    <vehicle id="6" type="passenger" depart="6.00">
        <route edges="-237532646 40818175#2 -285274476 285274491 285274478#5 285274478#6 285274478#1 838535589 227493803#7 41458024 40587621#0 40587621#1 40587621#2 40587621#3 40587621#4 220031805 -96721310#2 -656799560#4 -656799560#3"/>
    </vehicle>
    <vehicle id="7" type="passenger" depart="7.00">
        <route edges="41227685#1 41227653#0 41227653#1 41227653#2 41227653#3 264549770#5 48530553#4 48530553#5 48530553#0 40818502#0 40818502#0-AddedOffRampEdge 40818502#1 -41227410 -56063744 -227493793 45082161 40587621#2 40587621#3 40587621#4 40587621#5 40587621#5-AddedOffRampEdge 28828222#0 28828222#1-AddedOnRampEdge 28828222#1"/>
    </vehicle>
    <vehicle id="8" type="passenger" depart="8.00">
        <route edges="-667572877#2 238376212 238376148#0 238376148#1 238376148#2 40818175#0 40818175#1 40818175#2 -285274476 285274491 285274478#5 285274478#6 285274478#1 838535589 227493803#7 227493803#0 227493803#1 227493803#2 227493803#3 40587578"/>
    </vehicle>
    <vehicle id="9" type="passenger" depart="9.00">
        <route edges="656799557#1 656799563#1 656799563#2 -96721299 476660218 40652485#1 40652485#2 40652485#3 189422934#2 -189422934#2"/>
    </vehicle>
</routes>
