<?xml version="1.0" encoding="UTF-8"?>

<!-- generated on 2025-02-04 15:09:55.482498 by randomTrips.py UNKNOWN
<configuration>
    <net-file value="ufscar/osm.net.xml"/>
    <additional-files value="ufscar/park.add.xml"/>
    <output-trip-file value="ufscar/randtrips.trips.xml"/>
    <route-file value="ufscar/randtrips.rou.xml"/>
    <validate value="True"/>
    <end value="1800.0"/>
    <period value="2.0"/>
</configuration>
-->

<!-- generated on 2025-02-04 15:09:55 by Eclipse SUMO duarouter Version 1.21.0
<duarouterConfiguration xmlns:xsi="http://www.w3.org/2001/XMLSchema-instance" xsi:noNamespaceSchemaLocation="http://sumo.dlr.de/xsd/duarouterConfiguration.xsd">

    <input>
        <net-file value="ufscar/osm.net.xml"/>
        <additional-files value="ufscar/park.add.xml"/>
        <route-files value="ufscar/randtrips.trips.xml"/>
    </input>

    <output>
        <output-file value="ufscar/randtrips.trips.xml.tmp"/>
        <alternatives-output value="NUL"/>
        <write-trips value="true"/>
    </output>

    <time>
        <begin value="0"/>
        <end value="1800.0"/>
    </time>

    <report>
        <no-warnings value="true"/>
        <ignore-errors value="true"/>
        <no-step-log value="true"/>
    </report>

</duarouterConfiguration>
-->

<routes xmlns:xsi="http://www.w3.org/2001/XMLSchema-instance" xsi:noNamespaceSchemaLocation="http://sumo.dlr.de/xsd/routes_file.xsd">
    <trip id="0" depart="0.00" from="41227410" to="-237532646"/>
    <trip id="1" depart="2.00" from="-95827734#0" to="-848288494"/>
    <trip id="2" depart="4.00" from="56063750#1" to="41438598"/>
    <trip id="3" depart="6.00" from="87187527" to="-274062294"/>
    <trip id="4" depart="8.00" from="238376121" to="-237532652#0"/>
    <trip id="5" depart="10.00" from="-667058935" to="238376227"/>
    <trip id="6" depart="12.00" from="-237532646" to="-656799560#3"/>
    <trip id="7" depart="14.00" from="41227685#1" to="28828222#1"/>
    <trip id="8" depart="16.00" from="-667572877#2" to="40587578"/>
    <trip id="9" depart="18.00" from="656799557#1" to="-189422934#2"/>
    <trip id="10" depart="20.00" from="656799555#2" to="42118648#1-AddedOnRampEdge"/>
    <trip id="12" depart="24.00" from="95827734#1" to="227493793"/>
    <trip id="13" depart="26.00" from="-274062294" to="-366484189#0"/>
    <trip id="15" depart="30.00" from="656799557#0" to="55936638"/>
    <trip id="16" depart="32.00" from="264550011" to="95933113#1"/>
    <trip id="17" depart="34.00" from="237847883" to="354660207"/>
    <trip id="18" depart="36.00" from="668154447" to="40818099"/>
    <trip id="19" depart="38.00" from="85587674" to="402752543#0"/>
    <trip id="20" depart="40.00" from="43159187" to="-238376119"/>
    <trip id="21" depart="42.00" from="-84820633#0" to="-96721310#0"/>
    <trip id="22" depart="44.00" from="-238376217#1" to="-87181339"/>
    <trip id="23" depart="46.00" from="-366484189#1" to="-96577619"/>
    <trip id="24" depart="48.00" from="40818502#0" to="237847824"/>
    <trip id="25" depart="50.00" from="237532657#0" to="-656799565#3"/>
    <trip id="26" depart="52.00" from="-905782210" to="927303174#1"/>
    <trip id="27" depart="54.00" from="41227653#3" to="40652485#2"/>
    <trip id="31" depart="62.00" from="354660207" to="41438680"/>
    <trip id="33" depart="66.00" from="-84820633#1" to="-237847742"/>
    <trip id="34" depart="68.00" from="189422934#3" to="-95827734#1"/>
    <trip id="35" depart="70.00" from="-656799563#1" to="933870198"/>
    <trip id="36" depart="72.00" from="87181329" to="218728083"/>
    <trip id="37" depart="74.00" from="41227776#3" to="237862583"/>
    <trip id="38" depart="76.00" from="876072445" to="238376182#1"/>
    <trip id="42" depart="84.00" from="237862580" to="-83612836#0"/>
    <trip id="43" depart="86.00" from="973766008" to="238376232"/>
    <trip id="44" depart="88.00" from="-264549807" to="-238376124"/>
    <trip id="45" depart="90.00" from="-40520969" to="40818359"/>
    <trip id="47" depart="94.00" from="-238376157" to="237862571"/>
    <trip id="48" depart="96.00" from="96722456" to="264549928"/>
    <trip id="49" depart="98.00" from="95827743#1" to="848284395"/>
    <trip id="50" depart="100.00" from="-189422934#6" to="55936634#0"/>
    <trip id="51" depart="102.00" from="41438667#0" to="285274490"/>
    <trip id="52" depart="104.00" from="-905782210" to="41227653#0"/>
    <trip id="53" depart="106.00" from="-40652485#0" to="238376146#1"/>
    <trip id="54" depart="108.00" from="238376161" to="95827730#2"/>
    <trip id="55" depart="110.00" from="87181325" to="-94338555"/>
    <trip id="57" depart="114.00" from="876072442" to="85587732"/>
    <trip id="58" depart="116.00" from="-96721305" to="41227469#2"/>
    <trip id="62" depart="124.00" from="-1285875854" to="220031784#4"/>
    <trip id="64" depart="128.00" from="87181335#2" to="69332772#0"/>
    <trip id="65" depart="130.00" from="1349412675#0" to="-238376147#0"/>
    <trip id="66" depart="132.00" from="87181335#0" to="95827729#1"/>
    <trip id="67" depart="134.00" from="-238376239#0" to="238376209"/>
    <trip id="70" depart="140.00" from="238376192" to="354660200"/>
    <trip id="71" depart="142.00" from="-876072441" to="85587734"/>
    <trip id="72" depart="144.00" from="238376122" to="-667058935"/>
    <trip id="73" depart="146.00" from="274062294" to="55936638"/>
    <trip id="74" depart="148.00" from="-656799557#1" to="189422936#1"/>
    <trip id="75" depart="150.00" from="96721310#2" to="41227776#0"/>
    <trip id="76" depart="152.00" from="238376144#2" to="238376241#1"/>
    <trip id="78" depart="156.00" from="220031786" to="40587577"/>
    <trip id="79" depart="158.00" from="-84820633#1" to="-84820633#0"/>
    <trip id="80" depart="160.00" from="-238376183" to="40818502#0"/>
    <trip id="81" depart="162.00" from="-84820633#0" to="876072438"/>
    <trip id="82" depart="164.00" from="85587669" to="-238376186"/>
    <trip id="83" depart="166.00" from="-85526147" to="41438576#3"/>
    <trip id="84" depart="168.00" from="-656799565#1" to="-56670963#0"/>
    <trip id="85" depart="170.00" from="927303173#5" to="402752409"/>
    <trip id="87" depart="174.00" from="656799557#0" to="-656799555#2"/>
    <trip id="88" depart="176.00" from="-354660207" to="238376144#3"/>
    <trip id="89" depart="178.00" from="238376123" to="238376190"/>
    <trip id="90" depart="180.00" from="55936638" to="41438595"/>
    <trip id="91" depart="182.00" from="96577622#1" to="-366484189#1"/>
    <trip id="92" depart="184.00" from="237862582" to="227493795#0"/>
    <trip id="94" depart="188.00" from="-656799553#0" to="238376168"/>
    <trip id="95" depart="190.00" from="238376121" to="-96577619"/>
    <trip id="97" depart="194.00" from="238376146#1" to="848284396"/>
    <trip id="99" depart="198.00" from="974131307" to="70461433"/>
    <trip id="101" depart="202.00" from="773861053" to="-656799534#0"/>
    <trip id="102" depart="204.00" from="238376203" to="-70461445#0"/>
    <trip id="103" depart="206.00" from="237862581" to="-238376147#0"/>
    <trip id="104" depart="208.00" from="237847883" to="96577622#1"/>
    <trip id="106" depart="212.00" from="238376164" to="238376135#1"/>
    <trip id="107" depart="214.00" from="95827738#0" to="96721310#2"/>
    <trip id="108" depart="216.00" from="354660204" to="55936633#5"/>
    <trip id="110" depart="220.00" from="95827741#2" to="402752557"/>
    <trip id="111" depart="222.00" from="285274490" to="56670963#1"/>
    <trip id="112" depart="224.00" from="-238376144#3" to="40520969"/>
    <trip id="113" depart="226.00" from="238376222" to="838525359"/>
    <trip id="115" depart="230.00" from="-238376223#0" to="-656799554#1"/>
    <trip id="116" depart="232.00" from="40587580" to="41438596"/>
    <trip id="117" depart="234.00" from="-848284396" to="-41438667#3"/>
    <trip id="119" depart="238.00" from="40587580" to="40818100"/>
    <trip id="120" depart="240.00" from="238376119" to="40520969"/>
    <trip id="121" depart="242.00" from="238376241#1" to="927303173#5"/>
    <trip id="122" depart="244.00" from="-656799560#2" to="55936633#1"/>
    <trip id="123" depart="246.00" from="-85587679" to="237862583"/>
    <trip id="126" depart="252.00" from="-238376185" to="238376182#1"/>
    <trip id="127" depart="254.00" from="973766008" to="96722456"/>
    <trip id="128" depart="256.00" from="-238376186" to="-667572877#2"/>
    <trip id="129" depart="258.00" from="-876072441" to="927303173#2-AddedOnRampEdge"/>
    <trip id="130" depart="260.00" from="87181339" to="87181335#2"/>
    <trip id="132" depart="264.00" from="70461429" to="430879927#2"/>
    <trip id="133" depart="266.00" from="40652485#1" to="96577622#2"/>
    <trip id="134" depart="268.00" from="41227776#2" to="-189422934#3"/>
    <trip id="135" depart="270.00" from="656799563#1" to="1349412675#2"/>
    <trip id="136" depart="272.00" from="41438542#0" to="927303174#2-AddedOnRampEdge"/>
    <trip id="138" depart="276.00" from="-402752410" to="354660208"/>
    <trip id="140" depart="280.00" from="55936633#5" to="-656799563#2"/>
    <trip id="141" depart="282.00" from="40818492" to="-94338555"/>
    <trip id="142" depart="284.00" from="238376204#1" to="876072438"/>
    <trip id="144" depart="288.00" from="238376123" to="-96577617#1"/>
    <trip id="148" depart="296.00" from="238376133#3" to="-189422934#5"/>
    <trip id="149" depart="298.00" from="-238376204#1" to="87181347#2"/>
    <trip id="151" depart="302.00" from="70461430" to="402752560"/>
    <trip id="156" depart="312.00" from="-87181347#4" to="-402752410"/>
    <trip id="158" depart="316.00" from="238376109#0" to="40818143#0"/>
    <trip id="160" depart="320.00" from="85587678" to="96577612"/>
    <trip id="161" depart="322.00" from="656799560#1" to="87181347#0"/>
    <trip id="162" depart="324.00" from="-227493794" to="56063750#1"/>
    <trip id="163" depart="326.00" from="220031784#2" to="927303173#2"/>
    <trip id="164" depart="328.00" from="656799554#1" to="85587674"/>
    <trip id="165" depart="330.00" from="656799560#1" to="-95827734#0"/>
    <trip id="167" depart="334.00" from="85956358" to="84820637"/>
    <trip id="168" depart="336.00" from="-70461445#2" to="656799563#1"/>
    <trip id="169" depart="338.00" from="238376174" to="189422934#3"/>
    <trip id="171" depart="342.00" from="-227493794" to="-656799557#1"/>
    <trip id="172" depart="344.00" from="220031762#5" to="85587674"/>
    <trip id="173" depart="346.00" from="95827741#0" to="-96577619"/>
    <trip id="174" depart="348.00" from="41227469#1" to="238376109#1"/>
    <trip id="175" depart="350.00" from="96577621" to="285274476"/>
    <trip id="178" depart="356.00" from="95827739#1" to="-95827728"/>
    <trip id="179" depart="358.00" from="-402752559" to="238376146#0"/>
    <trip id="180" depart="360.00" from="55936638" to="218728083"/>
    <trip id="182" depart="364.00" from="237847962" to="402752543#0"/>
    <trip id="185" depart="370.00" from="274062294" to="55936634#0"/>
    <trip id="187" depart="374.00" from="237532648" to="-238376185"/>
    <trip id="188" depart="376.00" from="41438546" to="220031805"/>
    <trip id="191" depart="382.00" from="156651695#0" to="238376118#0"/>
    <trip id="192" depart="384.00" from="237862582" to="1168530282"/>
    <trip id="193" depart="386.00" from="-41438713" to="238376133#3"/>
    <trip id="196" depart="392.00" from="-96721310#2" to="354660197"/>
    <trip id="197" depart="394.00" from="-1285875854" to="-96721302"/>
    <trip id="198" depart="396.00" from="238376135#0" to="402752557"/>
    <trip id="199" depart="398.00" from="41227776#2" to="238376188"/>
    <trip id="200" depart="400.00" from="238376146#0" to="-70461445#0"/>
    <trip id="202" depart="404.00" from="656799538#5" to="-656799535#1"/>
    <trip id="203" depart="406.00" from="-238376224" to="238376239#1"/>
    <trip id="204" depart="408.00" from="40818359" to="227493792"/>
    <trip id="206" depart="412.00" from="41438576#4" to="-85526147"/>
    <trip id="207" depart="414.00" from="-656799557#0" to="-237532644"/>
    <trip id="208" depart="416.00" from="-87181347#1" to="238376200"/>
    <trip id="210" depart="420.00" from="238376114#0" to="40818492"/>
    <trip id="211" depart="422.00" from="-656799554#1" to="42118648#1"/>
    <trip id="213" depart="426.00" from="41227776#3" to="-189422934#2"/>
    <trip id="214" depart="428.00" from="656799509" to="656799531#1"/>
    <trip id="215" depart="430.00" from="-402752410" to="238376141#0"/>
    <trip id="217" depart="434.00" from="238376237" to="-238376133#3"/>
    <trip id="219" depart="438.00" from="238376168" to="656799554#1"/>
    <trip id="221" depart="442.00" from="40587580" to="95827729#3"/>
    <trip id="222" depart="444.00" from="87187527" to="40818035"/>
    <trip id="223" depart="446.00" from="55936634#0" to="238376226"/>
    <trip id="224" depart="448.00" from="668154449#0" to="354660197"/>
    <trip id="227" depart="454.00" from="-87181347#3" to="41227469#1"/>
    <trip id="229" depart="458.00" from="40818175#0" to="-96577611"/>
    <trip id="230" depart="460.00" from="-238376217#0" to="-96721299"/>
    <trip id="233" depart="466.00" from="-84820633#2" to="42118603#0"/>
    <trip id="234" depart="468.00" from="43159188#1" to="-238376172"/>
    <trip id="235" depart="470.00" from="238376109#1" to="285274498"/>
    <trip id="236" depart="472.00" from="238376118#0" to="-656799565#1"/>
    <trip id="238" depart="476.00" from="402752556" to="42118603#1"/>
    <trip id="242" depart="484.00" from="838525359" to="95827730#2"/>
    <trip id="243" depart="486.00" from="238376119" to="56670963#1"/>
    <trip id="244" depart="488.00" from="285274495#0" to="40587621#5-AddedOffRampEdge"/>
    <trip id="245" depart="490.00" from="-667572877#2" to="-83612836#0"/>
    <trip id="246" depart="492.00" from="238376144#0" to="-237532652#0"/>
    <trip id="247" depart="494.00" from="220031784#5" to="41438665"/>
    <trip id="249" depart="498.00" from="238376183" to="-430879927#1"/>
    <trip id="250" depart="500.00" from="40818099" to="-237532648"/>
    <trip id="251" depart="502.00" from="237862576" to="366484189#2"/>
    <trip id="252" depart="504.00" from="-237532646" to="41227653#2"/>
    <trip id="253" depart="506.00" from="-43159188#0" to="238376184"/>
    <trip id="254" depart="508.00" from="-238376133#2" to="237862569"/>
    <trip id="255" depart="510.00" from="-656799563#2" to="220031785"/>
    <trip id="258" depart="516.00" from="-87181397#1" to="-238376239#0"/>
    <trip id="259" depart="518.00" from="-220031817" to="285274495#0"/>
    <trip id="260" depart="520.00" from="974131307" to="227493805"/>
    <trip id="263" depart="526.00" from="95827729#2" to="-656799560#3"/>
    <trip id="265" depart="530.00" from="-41438667#3" to="41438576#3"/>
    <trip id="270" depart="540.00" from="656799563#2" to="95827741#0"/>
    <trip id="271" depart="542.00" from="-402752559" to="-237532646"/>
    <trip id="272" depart="544.00" from="156651695#2" to="41438599"/>
    <trip id="273" depart="546.00" from="95827738#0" to="237862587"/>
    <trip id="274" depart="548.00" from="55936633#1" to="-238376217#1"/>
    <trip id="275" depart="550.00" from="41438733" to="40818359"/>
    <trip id="280" depart="560.00" from="238376133#3" to="237847883"/>
    <trip id="281" depart="562.00" from="238376223#1" to="227493796#0"/>
    <trip id="283" depart="566.00" from="-391465208" to="95827739#1"/>
    <trip id="284" depart="568.00" from="40818502#0" to="668154447"/>
    <trip id="285" depart="570.00" from="43159188#1" to="238376146#1"/>
    <trip id="286" depart="572.00" from="56063744" to="95827741#0"/>
    <trip id="288" depart="576.00" from="274062294" to="238376207#1"/>
    <trip id="289" depart="578.00" from="238376144#0" to="55936639"/>
    <trip id="291" depart="582.00" from="668154449#0" to="-274062294"/>
    <trip id="293" depart="586.00" from="238376182#0" to="40652485#3"/>
    <trip id="294" depart="588.00" from="237847883" to="-237532649"/>
    <trip id="296" depart="592.00" from="-656799563#2" to="656799553#1"/>
    <trip id="297" depart="594.00" from="220031794" to="87181335#2"/>
    <trip id="298" depart="596.00" from="430879927#0" to="-96577614#0"/>
    <trip id="299" depart="598.00" from="-189422934#5" to="95827729#2"/>
    <trip id="300" depart="600.00" from="-238376239#0" to="55936634#0"/>
    <trip id="302" depart="604.00" from="41438733" to="41227685#0"/>
    <trip id="304" depart="608.00" from="-274062294" to="-84820633#1"/>
    <trip id="305" depart="610.00" from="41438738" to="189422934#4"/>
    <trip id="306" depart="612.00" from="402752413#0" to="238376198"/>
    <trip id="307" depart="614.00" from="264549779" to="238376141#0"/>
    <trip id="308" depart="616.00" from="56063751#1" to="220031805"/>
    <trip id="309" depart="618.00" from="430879927#1" to="-95827738#1"/>
    <trip id="310" depart="620.00" from="-87181397#1" to="-41438667#3"/>
    <trip id="311" depart="622.00" from="-656799554#0" to="-41438599"/>
    <trip id="314" depart="628.00" from="238376202" to="55936634#3"/>
    <trip id="315" depart="630.00" from="96577614#0" to="264549779"/>
    <trip id="316" depart="632.00" from="-96577611" to="-391465208"/>
    <trip id="317" depart="634.00" from="-656799554#1" to="-87181325"/>
    <trip id="319" depart="638.00" from="264549928" to="-96577611"/>
    <trip id="320" depart="640.00" from="95933113#1" to="354660208"/>
    <trip id="321" depart="642.00" from="42118603#1" to="-430879927#0"/>
    <trip id="322" depart="644.00" from="85587733" to="238376214"/>
    <trip id="323" depart="646.00" from="85956358" to="402752412"/>
    <trip id="324" depart="648.00" from="238376185" to="238376154"/>
    <trip id="326" depart="652.00" from="93090426" to="238376202"/>
    <trip id="327" depart="654.00" from="656799565#3" to="238376110"/>
    <trip id="328" depart="656.00" from="-238376186" to="40818492"/>
    <trip id="331" depart="662.00" from="96721310#1" to="-41438599"/>
    <trip id="334" depart="668.00" from="238376241#0" to="238376170"/>
    <trip id="335" depart="670.00" from="238376146#0" to="848284395"/>
    <trip id="337" depart="674.00" from="40818079" to="40652485#3"/>
    <trip id="338" depart="676.00" from="56063750#4" to="95827729#1"/>
    <trip id="339" depart="678.00" from="-656799560#4" to="-667058935"/>
    <trip id="342" depart="684.00" from="-1349412675#1" to="238376170"/>
    <trip id="343" depart="686.00" from="40587578" to="-96721310#1"/>
    <trip id="344" depart="688.00" from="-84820633#2" to="43159188#0"/>
    <trip id="345" depart="690.00" from="430879927#1" to="238376177#0"/>
    <trip id="348" depart="696.00" from="41438540" to="927303173#2-AddedOnRampEdge"/>
    <trip id="349" depart="698.00" from="238376124" to="28828222#0"/>
    <trip id="350" depart="700.00" from="41227653#3" to="876072440"/>
    <trip id="351" depart="702.00" from="667454101" to="-238376186"/>
    <trip id="353" depart="706.00" from="56670963#0" to="402752406"/>
    <trip id="354" depart="708.00" from="-96577617#1" to="-42118603#0"/>
    <trip id="355" depart="710.00" from="41438721" to="42141867"/>
    <trip id="356" depart="712.00" from="933870198" to="238376223#2"/>
    <trip id="357" depart="714.00" from="238376211" to="-238376223#2"/>
    <trip id="358" depart="716.00" from="-237862583" to="238376144#5"/>
    <trip id="360" depart="720.00" from="-274062278#1" to="95827739#2"/>
    <trip id="361" depart="722.00" from="70461433" to="402752413#0"/>
    <trip id="362" depart="724.00" from="95827730#0" to="974131307"/>
    <trip id="363" depart="726.00" from="41438576#4" to="-95827738#0"/>
    <trip id="365" depart="730.00" from="238376186" to="41227776#2"/>
    <trip id="367" depart="734.00" from="402752557" to="41227410"/>
    <trip id="368" depart="736.00" from="238376208" to="-297724830"/>
    <trip id="369" depart="738.00" from="227493794" to="220031817"/>
    <trip id="370" depart="740.00" from="41438576#2" to="84820633#2"/>
    <trip id="371" depart="742.00" from="220031784#1" to="42118603#0"/>
    <trip id="372" depart="744.00" from="-96577614#2" to="95827729#0"/>
    <trip id="373" depart="746.00" from="656799560#3" to="354660200"/>
    <trip id="374" depart="748.00" from="238376164" to="218728083"/>
    <trip id="375" depart="750.00" from="218728083" to="95827743#1"/>
    <trip id="376" depart="752.00" from="237862587" to="238376239#1"/>
    <trip id="378" depart="756.00" from="285274490" to="238376121"/>
    <trip id="383" depart="766.00" from="238376144#2" to="42118648#1-AddedOnRampEdge"/>
    <trip id="384" depart="768.00" from="-41438542#2" to="95933113#1"/>
    <trip id="385" depart="770.00" from="40600114" to="-87181347#3"/>
    <trip id="388" depart="776.00" from="96721310#0" to="876072443"/>
    <trip id="389" depart="778.00" from="238376177#0" to="-41438583#2"/>
    <trip id="390" depart="780.00" from="69332772#0" to="238376223#1"/>
    <trip id="391" depart="782.00" from="55936633#4" to="238376230"/>
    <trip id="392" depart="784.00" from="-94338555" to="70461430"/>
    <trip id="395" depart="790.00" from="905782210" to="238376230"/>
    <trip id="396" depart="792.00" from="87181335#2" to="85587674"/>
    <trip id="398" depart="796.00" from="238376114#0" to="927303173#5"/>
    <trip id="399" depart="798.00" from="238376225" to="656799565#2"/>
    <trip id="400" depart="800.00" from="-96577611" to="1349412675#2"/>
    <trip id="401" depart="802.00" from="402752558#0" to="974131307"/>
    <trip id="403" depart="806.00" from="274062294" to="227493796#2"/>
    <trip id="404" depart="808.00" from="354660197" to="28828222#0"/>
    <trip id="405" depart="810.00" from="238376168" to="220031784#2"/>
    <trip id="407" depart="814.00" from="366484189#2" to="-87181339"/>
    <trip id="409" depart="818.00" from="56063751#0-AddedOffRampEdge" to="43159187"/>
    <trip id="410" depart="820.00" from="656799560#2" to="237862576"/>
    <trip id="411" depart="822.00" from="41438546" to="656799565#2"/>
    <trip id="412" depart="824.00" from="96577621" to="238376222"/>
    <trip id="413" depart="826.00" from="-237847952" to="238376225"/>
    <trip id="414" depart="828.00" from="40520969" to="85587732"/>
    <trip id="415" depart="830.00" from="85956361#0" to="238376154"/>
    <trip id="416" depart="832.00" from="264549770#3" to="238376182#0"/>
    <trip id="417" depart="834.00" from="55936634#2" to="238376119"/>
    <trip id="419" depart="838.00" from="238376185" to="95827743#0"/>
    <trip id="420" depart="840.00" from="220031786" to="41458024"/>
    <trip id="421" depart="842.00" from="41227685#1" to="838525359"/>
    <trip id="422" depart="844.00" from="83612836#0" to="84820637"/>
    <trip id="425" depart="850.00" from="85956358" to="-237862570"/>
    <trip id="426" depart="852.00" from="-238376174" to="40818502#0"/>
    <trip id="427" depart="854.00" from="905782209" to="973766008"/>
    <trip id="428" depart="856.00" from="56063771" to="238376146#0"/>
    <trip id="430" depart="860.00" from="85956358" to="238376156"/>
    <trip id="433" depart="866.00" from="-96577622#0" to="237847958"/>
    <trip id="437" depart="874.00" from="85587735" to="40818100"/>
    <trip id="438" depart="876.00" from="-87181325" to="876072443"/>
    <trip id="441" depart="882.00" from="-189422934#4" to="656799555#1"/>
    <trip id="444" depart="888.00" from="227493792" to="40587577"/>
    <trip id="445" depart="890.00" from="41227410" to="238376138#0"/>
    <trip id="447" depart="894.00" from="-656799557#0" to="237862574"/>
    <trip id="448" depart="896.00" from="238376201" to="-87181347#2"/>
    <trip id="449" depart="898.00" from="366484189#2" to="402752412"/>
    <trip id="450" depart="900.00" from="96721310#0" to="1168530282"/>
    <trip id="452" depart="904.00" from="-94338555" to="366484189#3"/>
    <trip id="454" depart="908.00" from="-238376124" to="40604055"/>
    <trip id="456" depart="912.00" from="-96577614#0" to="656799553#1"/>
    <trip id="458" depart="916.00" from="40818502#0-AddedOffRampEdge" to="40818143#0"/>
    <trip id="459" depart="918.00" from="41438598" to="55936634#1"/>
    <trip id="462" depart="924.00" from="41227653#2" to="189422934#6"/>
    <trip id="463" depart="926.00" from="238376144#5" to="402752557"/>
    <trip id="464" depart="928.00" from="55937248" to="-285274476"/>
    <trip id="465" depart="930.00" from="-96577622#1" to="56670963#1"/>
    <trip id="467" depart="934.00" from="274062303" to="95933113#0"/>
    <trip id="468" depart="936.00" from="264549779" to="876072445"/>
    <trip id="469" depart="938.00" from="668154449#0" to="-876072441"/>
    <trip id="470" depart="940.00" from="667058935" to="238376206"/>
    <trip id="471" depart="942.00" from="656799555#2" to="56063771"/>
    <trip id="474" depart="948.00" from="95827741#0" to="848284395"/>
    <trip id="475" depart="950.00" from="55936634#4" to="96577617#0"/>
    <trip id="476" depart="952.00" from="95827741#1" to="656799555#1"/>
    <trip id="478" depart="956.00" from="-189422936#0" to="285274490"/>
    <trip id="479" depart="958.00" from="238376164" to="41438595"/>
    <trip id="480" depart="960.00" from="41438576#4" to="40520969"/>
    <trip id="481" depart="962.00" from="656799565#3" to="927303174#3"/>
    <trip id="482" depart="964.00" from="-402752559" to="-87181339"/>
    <trip id="483" depart="966.00" from="-237532644" to="87181347#2"/>
    <trip id="485" depart="970.00" from="-70461445#1" to="-238376170"/>
    <trip id="486" depart="972.00" from="667058935" to="876072441"/>
    <trip id="487" depart="974.00" from="-973766008" to="238376118#0"/>
    <trip id="488" depart="976.00" from="-56670963#1" to="95827729#0"/>
    <trip id="489" depart="978.00" from="1168530282" to="238376217#1"/>
    <trip id="490" depart="980.00" from="-354660207" to="87181347#5"/>
    <trip id="491" depart="982.00" from="-43159188#0" to="238376174"/>
    <trip id="493" depart="986.00" from="95827728" to="238376133#0"/>
    <trip id="495" depart="990.00" from="238376114#0" to="-366484189#1"/>
    <trip id="496" depart="992.00" from="238376204#1" to="238376118#0"/>
    <trip id="497" depart="994.00" from="95827730#0" to="-237847742"/>
    <trip id="498" depart="996.00" from="237532657#0" to="238376156"/>
    <trip id="499" depart="998.00" from="95827730#0" to="84820633#0"/>
    <trip id="501" depart="1002.00" from="285274491" to="96577614#0"/>
    <trip id="502" depart="1004.00" from="227493805" to="238376109#0"/>
    <trip id="503" depart="1006.00" from="-656799553#0" to="-41438713"/>
    <trip id="505" depart="1010.00" from="41438542#0" to="41227653#1"/>
    <trip id="506" depart="1012.00" from="40587593" to="-227493793"/>
    <trip id="508" depart="1016.00" from="-41438667#3" to="366484189#2"/>
    <trip id="510" depart="1020.00" from="-656799560#4" to="-70461445#1"/>
    <trip id="511" depart="1022.00" from="85587734" to="220031786"/>
    <trip id="513" depart="1026.00" from="-1349412675#2" to="84820637"/>
    <trip id="516" depart="1032.00" from="41438540" to="-237532646"/>
    <trip id="518" depart="1036.00" from="-85526147" to="220031784#4"/>
    <trip id="521" depart="1042.00" from="56063751#1" to="238376201"/>
    <trip id="523" depart="1046.00" from="-40520969" to="238376226"/>
    <trip id="524" depart="1048.00" from="95827728" to="-238376113"/>
    <trip id="526" depart="1052.00" from="238376241#0" to="238376182#0"/>
    <trip id="527" depart="1054.00" from="95827739#2" to="-238376156"/>
    <trip id="528" depart="1056.00" from="238376197" to="238376110"/>
    <trip id="529" depart="1058.00" from="41438680" to="238376214"/>
    <trip id="530" depart="1060.00" from="876072440" to="-238376204#1"/>
    <trip id="531" depart="1062.00" from="-238376223#0" to="40652485#2"/>
    <trip id="532" depart="1064.00" from="-238376170" to="-96577611"/>
    <trip id="533" depart="1066.00" from="40818359" to="354660197"/>
    <trip id="534" depart="1068.00" from="220031754" to="96721310#2"/>
    <trip id="535" depart="1070.00" from="264549779" to="238376174"/>
    <trip id="536" depart="1072.00" from="40587621#4" to="-366484189#2"/>
    <trip id="537" depart="1074.00" from="430879927#0" to="838525359"/>
    <trip id="539" depart="1078.00" from="55936634#1" to="-70461445#1"/>
    <trip id="540" depart="1080.00" from="238376156" to="-87181329"/>
    <trip id="541" depart="1082.00" from="220031786" to="238376174"/>
    <trip id="543" depart="1086.00" from="238376133#0" to="41438576#0"/>
    <trip id="547" depart="1094.00" from="-354660207" to="56063750#3"/>
    <trip id="549" depart="1098.00" from="402752558#0" to="364450060"/>
    <trip id="550" depart="1100.00" from="220031784#0" to="-41438713"/>
    <trip id="551" depart="1102.00" from="227493796#1" to="41438576#0"/>
    <trip id="552" depart="1104.00" from="56670963#1" to="85587679"/>
    <trip id="553" depart="1106.00" from="55936634#1" to="95827743#0"/>
    <trip id="554" depart="1108.00" from="40587621#1" to="227493806"/>
    <trip id="555" depart="1110.00" from="402752409" to="-667572877#2"/>
    <trip id="556" depart="1112.00" from="41227776#4" to="-85526147"/>
    <trip id="559" depart="1118.00" from="402752406" to="656799557#0"/>
    <trip id="560" depart="1120.00" from="72630811#2" to="96577611"/>
    <trip id="561" depart="1122.00" from="656799563#2" to="40818043"/>
    <trip id="562" depart="1124.00" from="41227469#1" to="-237532648"/>
    <trip id="563" depart="1126.00" from="927303173#0-AddedOffRampEdge" to="668154449#0"/>
    <trip id="565" depart="1130.00" from="430879927#1" to="189422934#6"/>
    <trip id="566" depart="1132.00" from="220031794" to="-189422934#2"/>
    <trip id="567" depart="1134.00" from="85587734" to="366484189#3"/>
    <trip id="569" depart="1138.00" from="40818492" to="-237532657#0"/>
    <trip id="570" depart="1140.00" from="56063751#1" to="-70461445#1"/>
    <trip id="571" depart="1142.00" from="238376120" to="227493795#3"/>
    <trip id="572" depart="1144.00" from="237532657#0" to="55936634#1"/>