<?xml version='1.0' encoding='UTF-8'?>
<routes xmlns:xsi="http://www.w3.org/2001/XMLSchema-instance" xsi:noNamespaceSchemaLocation="http://sumo.dlr.de/xsd/routes_file.xsd">
    <vehicle id="0" depart="0.00" type="v_aggressive2">
        <route edges="41227410 220031785 56063750#2 56063750#3 56063750#4 227493806 40587590#4 40587590#5 40587590#6 40587590#1 40587593 227493803#2 227493803#3 227493803#4 227493803#5 85587674 285274478#3 285274490 285274476 285274498 55936633#0 55936633#1 -237532646" />
    </vehicle>
    <vehicle id="1" depart="1.00" type="v_aggressive3">
        <route edges="-95827734#0 905782211#1 220031762#0 220031762#4 220031762#5 48530553#0 40818502#0 40818502#0-AddedOffRampEdge 40818502#1 -41227410 -56063744 -227493793 -227493792 -227493794 238376118#0 238376118#0-AddedOffRampEdge 40818359 70461432#2 70461432#3 70461432#4 70461432#5 96722456 85587734 -848288494" />
    </vehicle>
    <vehicle id="2" depart="2.00" type="v_aggressive0">
        <route edges="56063750#1 56063750#2 220031786 -41227410 -56063744 -227493793 -227493792 -227493794 238376118#0 238376118#0-AddedOffRampEdge 40818359 70461432#2 85587732 -237847888 237847883 838525359 40818005#2 40818005#3 40818005#4 41438680 237862587 237862580 41438534#6 237862577 237862583 238376206 41438527#5 41438527#6 41438527#1 41438598" />
    </vehicle>
    <vehicle id="3" depart="3.00" type="v_aggressive1">
        <route edges="87187527 238376118#0 238376118#0-AddedOffRampEdge 40818359 70461432#2 85587732 -237847888 237847883 838525359 40818005#2 85587733 -237862570 40818071 40818007#1 237862579 -238376172 238376201 40818012#1 40818035 -274062278#1 -274062294" />
    </vehicle>
    <vehicle id="4" depart="4.00" type="v_aggressive0">
        <route edges="238376121 -41438583#2 41438483#3 85956361#0 238376151#3 55936634#0 55936634#1 55936634#2 55936634#3 55936634#4 40818012#5 40818043 238376172 237862576 40818007#3 40818007#4 40818007#5 237862581 237862570 237862571 40818005#4 40818005#5 40818005#6 40818079 264550011 237847888 237847866 70461432#4 70461432#5 96722456 85587734 85587735 40818091#1 40818091#2 40818091#3 40818091#4 237847958 237847766#3 237847766#4 237847766#5 237847767 354660196#3 354660196#4 354660196#5 364449968 476660218 40652485#1 -237532648 -237532657#0 -237532652#0" />
    </vehicle>
    <vehicle id="5" depart="5.00" type="v_aggressive3">
        <route edges="-667058935 238376109#1 41438483#5 41438540 41438475#5 41438475#6 238376227" />
    </vehicle>
    <vehicle id="6" depart="6.00" type="v_aggressive4">
        <route edges="-237532646 40818175#2 -285274476 285274491 285274478#5 285274478#6 285274478#1 838535589 227493803#7 41458024 40587621#0 40587621#1 40587621#2 40587621#3 40587621#4 220031805 -96721310#2 -656799560#4 -656799560#3" />
    </vehicle>
    <vehicle id="7" depart="7.00" type="v_aggressive0">
        <route edges="41227685#1 41227653#0 41227653#1 41227653#2 41227653#3 264549770#5 48530553#4 48530553#5 48530553#0 40818502#0 40818502#0-AddedOffRampEdge 40818502#1 -41227410 -56063744 -227493793 45082161 40587621#2 40587621#3 40587621#4 40587621#5 40587621#5-AddedOffRampEdge 28828222#0 28828222#1-AddedOnRampEdge 28828222#1" />
    </vehicle>
    <vehicle id="8" depart="8.00" type="v_aggressive4">
        <route edges="-667572877#2 238376212 238376148#0 238376148#1 238376148#2 40818175#0 40818175#1 40818175#2 -285274476 285274491 285274478#5 285274478#6 285274478#1 838535589 227493803#7 227493803#0 227493803#1 227493803#2 227493803#3 40587578" />
    </vehicle>
    <vehicle id="9" depart="9.00" type="v_aggressive1">
        <route edges="656799557#1 656799563#1 656799563#2 -96721299 476660218 40652485#1 40652485#2 40652485#3 189422934#2 -189422934#2" />
    </vehicle>
    <vehicle id="10" depart="10.00" type="v_aggressive1">
        <route edges="656799555#2 656799560#1 656799560#2 656799560#3 656799563#0 656799563#1 656799563#2 -96721299 476660218 363624636 -973766008 -220031817 220031810 56063771 56063750#1 56063750#2 56063750#3 56063750#4 56063750#5 42118648#1-AddedOnRampEdge" />
    </vehicle>
    <vehicle id="12" depart="12.00" type="v_aggressive3">
        <route edges="95827734#1 227493795#3 227493802 40587590#5 40587590#6 40587590#1 40587593 227493803#2 227493803#3 227493803#4 227493803#5 227493803#6 227493803#7 41458024 40587621#0 40587621#1 40587621#2 40818492 227493792 227493793" />
    </vehicle>
    <vehicle id="13" depart="13.00" type="v_aggressive2">
        <route edges="-274062294 -41438721 41438738 41438727#3 238376110 -40818003 85587669 285274478#1 838535589 227493803#7 41458024 40587621#0 40587621#1 40587621#2 40587621#3 40587621#4 220031805 220031754 476660218 40652485#1 40652485#2 40652485#3 -96577614#0 -366484189#0" />
    </vehicle>
    <vehicle id="15" depart="15.00" type="v_aggressive2">
        <route edges="656799557#0 656799557#1 656799563#1 656799563#2 -96721299 476660218 363624636 -973766008 -220031817 220031810 56063771 56063750#1 56063750#2 56063750#3 56063750#4 227493806 40587590#4 40587590#5 40587590#6 40587590#1 40587593 227493803#2 227493803#3 40587578 40520969 238376113 238376111 238376112 238376114#0 264549808 264549807 391465208 238376164 238376148#5 55936639 55936637#0 55936638" />
    </vehicle>
    <vehicle id="16" depart="16.00" type="v_aggressive4">
        <route edges="264550011 237847888 237847866 70461432#4 70461432#5 96722456 85587734 85587735 40818091#1 40818091#2 40818091#3 40818091#4 237847958 237847766#3 237847766#4 237847766#5 237847767 354660196#3 354660196#4 354660196#5 364449968 476660218 40652485#1 40652485#2 40652485#3 189422934#2 189422934#3 189422934#4 43159188#0 43159188#1 189422936#1 -70461445#2 -70461445#1 87181325 95933113#1" />
    </vehicle>
    <vehicle id="17" depart="17.00" type="v_aggressive3">
        <route edges="237847883 237862569 264550011 237847888 237847866 70461432#4 70461432#5 96722456 85587734 85587735 40818091#1 40818091#2 40818091#3 40818091#4 237847958 237847766#3 237847766#4 237847766#5 237847767 354660196#3 354660196#4 354660207" />
    </vehicle>
    <vehicle id="18" depart="18.00" type="v_aggressive2">
        <route edges="668154447 -667058935 238376109#1 41438483#5 41438483#1 41438483#2 41438583#0 238376123 41438522#1 41438522#2 41438522#3 238376122 238376124 41438524#0 238376202 238376174 238376215 41438527#1 41438527#2 41438527#3 238376190 -237862583 41438670 41438534#2 41438534#3 41438534#4 237862578 -237862587 237862582 40818005#6 40818079 264550011 237847888 237847866 70461432#4 70461432#5 96722456 85587734 85587735 40818091#1 40818091#2 40818099" />
    </vehicle>
    <vehicle id="19" depart="19.00" type="v_aggressive3">
        <route edges="85587674 285274478#3 285274478#4 285274478#5 285274478#6 285274478#1 838535589 227493803#7 41458024 40587621#0 87187527 238376118#0 238376118#0-AddedOffRampEdge 40818359 70461432#2 85587732 -237847888 237847883 838525359 40818005#2 40818005#3 40818005#4 41438680 237862587 237862580 41438534#6 41438534#1 41438534#2 237862574 -238376133#3 -238376133#2 238376192 41438539#4 41438539#5 41438539#0 238376146#0 238376146#1 402752543#0" />
    </vehicle>
    <vehicle id="20" depart="20.00" type="v_aggressive3">
        <route edges="43159187 88512247#3 48530553#2 48530553#3 48530553#4 48530553#5 48530553#0 40818502#0 40818502#0-AddedOffRampEdge 40818502#1 -41227410 -56063744 -227493793 -227493792 -227493794 238376118#0 238376118#0-AddedOffRampEdge 40818359 70461432#2 85587732 -237847888 237847883 838525359 40818005#2 40818005#3 40818005#4 41438680 237862587 237862580 41438534#6 237862577 237862583 238376206 41438527#5 238376214 -238376174 41438596 41438524#2 41438524#3 41438524#4 -238376124 41438595 41438522#7 41438522#8 41438522#1 238376120 238376119 -238376119" />
    </vehicle>
    <vehicle id="21" depart="21.00" type="v_normal4">
        <route edges="-84820633#0 -40652485#2 -40652485#1 -40652485#0 96721299 -96721310#0" />
    </vehicle>
    <vehicle id="22" depart="22.00" type="v_normal4">
        <route edges="-238376217#1 238376217#1 -238376186 238376168 72630811#2 -430879927#1 -430879927#0 933870198 -238376114#0 -238376112 -238376111 -238376113 -40520969 40587577 227493803#5 227493803#6 227493803#7 41458024 40587621#0 40587621#1 40587621#2 40587621#3 40587621#4 220031805 220031754 476660218 363624636 -973766008 237532644 -87181335#2 87181347#4 -87181339" />
    </vehicle>
    <vehicle id="23" depart="23.00" type="v_normal3">
        <route edges="-366484189#1 96577614#0 -189422934#1 -40652485#2 -96721305 -973766008 -96577619" />
    </vehicle>
    <vehicle id="24" depart="24.00" type="v_normal0">
        <route edges="40818502#0 40818502#0-AddedOffRampEdge 40818502#1 -41227410 -56063744 -227493793 -227493792 -227493794 238376118#0 238376118#0-AddedOffRampEdge 927303174#1 927303174#2-AddedOnRampEdge 927303174#2 237847884 237847824" />
    </vehicle>
    <vehicle id="25" depart="25.00" type="v_normal2">
        <route edges="237532657#0 237532648 -40652485#1 -40652485#0 96721299 -656799563#2 -656799565#3" />
    </vehicle>
    <vehicle id="26" depart="26.00" type="v_normal4">
        <route edges="-905782210 905782209 41227653#0 41227653#1 41227653#2 41227653#3 264549770#5 48530553#4 48530553#5 48530553#0 40818502#0 40818502#0-AddedOffRampEdge 40818502#1 -41227410 -56063744 -227493793 -227493792 -227493794 238376118#0 238376118#0-AddedOffRampEdge 927303174#1" />
    </vehicle>
    <vehicle id="27" depart="27.00" type="v_normal3">
        <route edges="41227653#3 264549770#5 48530553#4 48530553#5 48530553#0 48530553#1 48530553#2 41227469#0 56005268 -189422934#5 -189422934#4 -189422934#3 -189422934#2 -189422934#1 -40652485#2 40652485#2" />
    </vehicle>
    <vehicle id="31" depart="31.00" type="v_normal1">
        <route edges="354660207 -354660207 354660196#5 354660196#6 354660196#1 364450026 237847766#1 70461429 237847836 40818091#6 40818091#7 70461430 -848288494 70461433 70461432#1 70461432#2 85587732 -237847888 237847883 838525359 40818005#2 40818005#3 40818005#4 41438680" />
    </vehicle>
    <vehicle id="33" depart="33.00" type="v_normal3">
        <route edges="-84820633#1 -84820633#0 -40652485#2 -40652485#1 -40652485#0 354660197 354660196#1 364450026 237847766#1 70461429 237847836 40818091#6 40818091#7 40818091#8 40818091#1 40818091#2 40818099 -237847742" />
    </vehicle>
    <vehicle id="34" depart="34.00" type="v_normal3">
        <route edges="189422934#3 43159187 88512247#3 48530553#2 48530553#3 48530553#4 48530553#5 48530553#0 40818502#0 40818502#0-AddedOffRampEdge 48530552 48530552-AddedOffRampEdge 227493795#0 -95827734#1" />
    </vehicle>
    <vehicle id="35" depart="35.00" type="v_normal3">
        <route edges="-656799563#1 656799563#1 656799563#2 -96721299 476660218 363624636 -973766008 -220031817 220031810 56063771 56063750#1 56063750#2 56063750#3 56063750#4 227493806 40587590#4 40587590#5 40587590#6 40587590#1 40587593 227493803#2 227493803#3 40587578 40520969 238376113 238376111 238376112 238376114#0 264549779 430879927#0 -430879927#0 933870198" />
    </vehicle>
    <vehicle id="36" depart="36.00" type="v_normal2">
        <route edges="87181329 87181347#3 87181335#2 -237532644 973766008 96721305 -40652485#1 -40652485#0 354660197 354660196#1 364450026 237847766#1 70461429 237847836 40818091#6 40818091#7 70461430 -848288494 70461433 70461432#1 70461432#2 85587732 -237847888 237847883 838525359 40818005#2 40818005#3 40818005#4 41438680 237862587 237862580 41438534#6 237862577 237862583 238376206 41438527#5 238376214 -238376174 41438596 41438524#2 41438524#3 41438524#4 -238376124 41438595 41438522#7 41438522#8 41438522#1 238376120 238376119 -238376119 218728083" />
    </vehicle>
    <vehicle id="37" depart="37.00" type="v_normal4">
        <route edges="41227776#3 41227776#4 905782211#3 905782211#4 905782211#1 220031762#0 220031762#4 220031762#5 48530553#0 40818502#0 40818502#0-AddedOffRampEdge 40818502#1 -41227410 -56063744 -227493793 -227493792 -227493794 238376118#0 238376118#0-AddedOffRampEdge 40818359 70461432#2 85587732 -237847888 237847883 838525359 40818005#2 40818005#3 40818005#4 41438680 237862587 237862580 41438534#6 237862577 237862583" />
    </vehicle>
    <vehicle id="38" depart="38.00" type="v_normal4">
        <route edges="876072445 -876072441 238376144#3 238376168 72630811#2 -430879927#1 -430879927#0 933870198 264549808 264549807 391465208 238376164 238376148#5 238376148#6 238376148#0 238376198 238376182#0 238376182#1" />
    </vehicle>
    <vehicle id="42" depart="42.00" type="v_normal3">
        <route edges="237862580 41438534#6 41438534#1 41438534#2 41438534#3 41438534#4 237862578 -237862587 237862582 40818005#6 40818079 264550011 237847888 237847866 70461432#4 70461432#5 96722456 85587734 85587735 40818091#1 40818091#2 40818091#3 40818091#4 237847958 237847766#3 237847766#4 237847766#5 237847767 354660196#3 354660196#4 354660196#5 364449968 476660218 363624636 -973766008 237532644 -87181335#2 -87181347#3 -87181347#2 -83612836#0" />
    </vehicle>
    <vehicle id="43" depart="43.00" type="v_normal4">
        <route edges="973766008 96721305 -40652485#1 -40652485#0 354660197 354660196#1 364450026 237847766#1 70461429 237847836 40818091#6 40818091#7 70461430 -848288494 70461433 70461432#1 70461432#2 85587732 -237847888 237847883 838525359 40818005#2 40818005#3 40818005#4 41438680 237862587 237862580 41438534#6 237862577 237862583 238376206 41438527#5 41438527#6 41438527#1 41438598 238376177#0 238376208 41438529#1 238376232" />
    </vehicle>
    <vehicle id="44" depart="44.00" type="v_normal4">
        <route edges="-264549807 40818143#0 264549808 264549807 391465208 238376164 238376148#5 55936639 55936637#0 55936638 274062278#0 238376188 40818012#3 40818012#4 40818012#5 40818043 238376172 237862576 40818007#3 69332772#0 238376149#3 238376141#0 41438524#4 -238376124" />
    </vehicle>
    <vehicle id="45" depart="45.00" type="v_normal4">
        <route edges="-40520969 40587577 227493803#5 227493803#6 227493803#7 41458024 40587621#0 87187527 238376118#0 238376118#0-AddedOffRampEdge 40818359" />
    </vehicle>
    <vehicle id="47" depart="47.00" type="v_normal4">
        <route edges="-238376157 238376149#1 238376233#0 40818007#5 237862581 237862570 237862571" />
    </vehicle>
    <vehicle id="48" depart="48.00" type="v_cautious1">
        <route edges="96722456 85587734 85587735 40818091#1 40818091#2 40818091#3 40818091#4 40818091#5 40818091#6 237847962 927303173#2-AddedOnRampEdge 927303173#2 927303173#2-AddedOffRampEdge 927303173#5 227493794 227493792 227493793 56063744 41227410 220031785 56063750#2 56063750#3 56063750#4 227493806 40587590#4 40587590#5 40587590#6 40587590#1 40587593 227493803#2 227493803#3 227493803#4 227493803#5 85587674 285274478#3 285274478#4 285274478#5 264549928" />
    </vehicle>
    <vehicle id="49" depart="49.00" type="v_cautious1">
        <route edges="95827743#1 40604055 1168530282 220031784#1 220031784#2 220031784#3 220031784#4 220031784#5 40587590#6 40587590#1 40587593 227493803#2 227493803#3 227493803#4 227493803#5 227493803#6 227493803#7 41458024 40587621#0 40587621#1 40587621#2 40587621#3 40587621#4 220031805 220031754 354660197 354660196#1 354660196#2 354660200 848284395" />
    </vehicle>
    <vehicle id="50" depart="50.00" type="v_cautious4">
        <route edges="-189422934#6 -189422934#5 -189422934#4 43159187 88512247#3 48530553#2 48530553#3 48530553#4 48530553#5 48530553#0 40818502#0 40818502#0-AddedOffRampEdge 40818502#1 -41227410 -56063744 -227493793 -227493792 -227493794 238376118#0 238376118#0-AddedOffRampEdge 40818359 70461432#2 85587732 -237847888 237847883 838525359 40818005#2 85587733 -237862570 40818071 40818007#1 237862579 -238376172 238376201 40818012#1 40818012#2 40818012#3 41438576#0 41438576#1 41438576#2 41438576#3 41438576#4 238376151#1 238376151#2 238376151#3 55936634#0" />
    </vehicle>
    <vehicle id="51" depart="51.00" type="v_cautious3">
        <route edges="41438667#0 41438529#4 238376197 -297724830 41438678 41438527#3 41438527#4 41438527#5 238376214 -238376174 41438596 41438524#2 238376138#0 238376149#5 238376149#1 238376233#0 40818007#5 40818007#6 40818007#1 237862579 -238376172 238376201 40818012#1 40818035 -274062278#1 -274062294 -41438721 41438738 41438727#3 238376110 -40818003 85587669 285274478#1 285274478#2 285274478#3 285274490" />
    </vehicle>
    <vehicle id="52" depart="52.00" type="v_cautious3">
        <route edges="-905782210 905782209 41227653#0" />
    </vehicle>
    <vehicle id="53" depart="53.00" type="v_cautious0">
        <route edges="-40652485#0 354660197 354660196#1 364450026 237847766#1 70461429 237847836 40818091#6 40818091#7 70461430 -848288494 70461433 70461432#1 70461432#2 85587732 -237847888 237847883 838525359 40818005#2 40818005#3 40818005#4 41438680 237862587 237862580 41438534#6 41438534#1 41438534#2 237862574 -238376133#3 -238376133#2 238376192 41438539#4 41438539#5 41438539#0 238376146#0 238376146#1" />
    </vehicle>
    <vehicle id="54" depart="54.00" type="v_cautious1">
        <route edges="238376161 238376168 72630811#2 -430879927#1 -430879927#0 933870198 -238376114#0 -238376112 -238376111 -238376113 -40520969 40587577 227493803#5 227493803#6 227493803#7 227493803#0 40587597 40587590#3 40587590#4 40600114 227493796#0 227493796#1 227493796#2 227493796#3 95827741#0 95827739#1 95827730#2" />
    </vehicle>
    <vehicle id="55" depart="55.00" type="v_cautious1">
        <route edges="87181325 -87181325 70461445#1 70461445#2 -189422936#1 -189422936#0 -43159188#0 -189422934#4 43159187 88512247#3 48530553#2 48530553#3 48530553#4 48530553#5 48530553#0 40818502#0 40818502#0-AddedOffRampEdge 40818502#1 -41227410 -56063744 -227493793 -227493792 -227493794 238376118#0 238376118#0-AddedOffRampEdge 40818359 70461432#2 85587732 -237847888 237847883 838525359 40818005#2 85587733 -237862570 40818071 40818007#1 237862579 -238376172 238376201 40818012#1 40818012#2 40818012#3 41438576#0 41438576#1 41438576#2 -94338555" />
    </vehicle>
    <vehicle id="57" depart="57.00" type="v_cautious0">
        <route edges="876072442 -238376185 -238376186 238376168 72630811#2 -430879927#1 -430879927#0 933870198 -238376114#0 -238376112 -238376111 -238376113 -40520969 40587577 227493803#5 227493803#6 227493803#7 41458024 40587621#0 87187527 238376118#0 238376118#0-AddedOffRampEdge 40818359 70461432#2 85587732" />
    </vehicle>
    <vehicle id="58" depart="58.00" type="v_cautious0">
        <route edges="-96721305 96721305 40652485#2 40652485#3 189422934#2 189422934#3 189422934#4 189422934#5 189422934#6 220031794 41227469#2" />
    </vehicle>
    <vehicle id="62" depart="62.00" type="v_cautious1">
        <route edges="-1285875854 220031784#2 220031784#3 220031784#4" />
    </vehicle>
    <vehicle id="64" depart="64.00" type="v_cautious2">
        <route edges="87181335#2 -237532644 973766008 96721305 -40652485#1 -40652485#0 354660197 354660196#1 364450026 237847766#1 70461429 237847836 40818091#6 40818091#7 70461430 -848288494 70461433 70461432#1 70461432#2 85587732 -237847888 237847883 838525359 40818005#2 85587733 -237862570 40818071 40818007#1 40818007#2 40818007#3 69332772#0" />
    </vehicle>
    <vehicle id="65" depart="65.00" type="v_cautious3">
        <route edges="1349412675#0 1349412675#2 354660204 354660196#4 354660196#5 364449968 476660218 363624636 -973766008 -220031817 220031810 56063771 56063750#1 56063750#2 56063750#3 56063750#4 227493806 40587590#4 40587590#5 40587590#6 40587590#1 40587593 227493803#2 227493803#3 40587578 40520969 238376113 238376111 238376112 238376114#0 264549779 430879927#0 72630811#0 238376161 238376186 -238376217#1 -238376147#0" />
    </vehicle>
    <vehicle id="66" depart="66.00" type="v_cautious2">
        <route edges="87181335#0 87181335#2 -237532644 973766008 96721305 40652485#2 40652485#3 189422934#2 189422934#3 43159187 88512247#3 48530553#2 48530553#3 48530553#4 41227776#0 95827729#0 95827729#1" />
    </vehicle>
    <vehicle id="67" depart="67.00" type="v_cautious4">
        <route edges="-238376239#0 -876072439 238376184 876072444#3 876072445 -876072441 238376144#3 238376168 72630811#2 -430879927#1 -430879927#0 933870198 -238376114#0 238376193 238376135#0 238376135#1 238376209" />
    </vehicle>
    <vehicle id="70" depart="70.00" type="v_cautious1">
        <route edges="238376192 41438539#4 41438539#5 41438539#0 41438539#1 41438539#2 41438665 238376133#0 238376133#3 237862573 41438534#4 237862578 -237862587 237862582 40818005#6 40818079 264550011 237847888 237847866 70461432#4 70461432#5 96722456 85587734 85587735 40818091#1 40818091#2 40818091#3 40818091#4 237847958 237847766#3 237847766#4 237847766#5 237847767 354660200" />
    </vehicle>
    <vehicle id="71" depart="71.00" type="v_cautious1">
        <route edges="-876072441 238376144#3 238376168 72630811#2 -430879927#1 -430879927#0 933870198 -238376114#0 -238376112 -238376111 -238376113 -40520969 40587577 227493803#5 227493803#6 227493803#7 41458024 40587621#0 87187527 238376118#0 238376118#0-AddedOffRampEdge 40818359 70461432#2 70461432#3 70461432#4 70461432#5 96722456 85587734" />
    </vehicle>
    <vehicle id="72" depart="72.00" type="v_cautious0">
        <route edges="238376122 238376124 41438524#0 41438524#1 41438524#2 41438524#3 41438524#4 -238376124 41438595 41438522#7 238376121 -41438583#2 41438483#3 85956361#0 238376151#3 238376151#5 238376151#1 238376109#0 667058935 -667058935" />
    </vehicle>
    <vehicle id="73" depart="73.00" type="v_cautious2">
        <route edges="274062294 274062278#0 238376188 40818012#3 40818012#4 40818012#5 40818012#6 40818012#1 40818035 -274062278#1 274062303 41438713 -667572877#2 55936637#0 55936638" />
    </vehicle>
    <vehicle id="74" depart="74.00" type="v_super_aggressive4">
        <route edges="-656799557#1 -656799557#0 656799565#3 656799563#2 -96721299 476660218 40652485#1 40652485#2 40652485#3 189422934#2 189422934#3 189422934#4 43159188#0 43159188#1 189422936#1" />
    </vehicle>
    <vehicle id="75" depart="75.00" type="v_super_aggressive1">
        <route edges="96721310#2 220031754 476660218 40652485#1 40652485#2 40652485#3 189422934#2 189422934#3 43159187 88512247#3 48530553#2 48530553#3 48530553#4 41227776#0" />
    </vehicle>
    <vehicle id="76" depart="76.00" type="v_super_aggressive4">
        <route edges="238376144#2 238376144#3 238376168 72630811#2 -430879927#1 -430879927#0 933870198 -238376114#0 -238376112 -238376111 -238376113 -40520969 40587577 227493803#5 227493803#6 227493803#7 41458024 40587621#0 87187527 238376118#0 238376118#0-AddedOffRampEdge 40818359 70461432#2 85587732 -237847888 237847883 838525359 40818005#2 40818005#3 40818005#4 41438680 237862587 237862580 41438534#6 41438534#1 41438534#2 237862574 -238376133#3 -238376133#2 238376192 41438539#4 41438539#5 41438539#0 238376146#0 238376146#1 402752560 238376241#0 238376241#1" />
    </vehicle>
    <vehicle id="78" depart="78.00" type="v_super_aggressive3">
        <route edges="220031786 -41227410 -56063744 -227493793 227493793 56063744 41227410 220031785 56063750#2 56063750#3 56063750#4 227493806 40587590#4 40587590#5 40587590#6 40587590#1 40587593 227493803#2 227493803#3 40587578 40520969 -40520969 40587577" />
    </vehicle>
    <vehicle id="79" depart="79.00" type="v_super_aggressive1">
        <route edges="-84820633#1 -84820633#0" />
    </vehicle>
    <vehicle id="80" depart="80.00" type="v_super_aggressive1">
        <route edges="-238376183 85956358 41438467#2 93090426 402752557 402752545#4 402752545#5 402752545#6 402752406 -238376119 218728083 41438522#3 238376122 238376124 41438524#0 238376202 238376174 238376215 41438527#1 41438527#2 41438527#3 238376190 -237862583 41438670 41438534#2 41438534#3 41438534#4 237862578 -237862587 237862582 40818005#6 40818079 264550011 237847888 237847866 70461432#4 70461432#5 96722456 85587734 85587735 40818091#1 40818091#2 40818091#3 40818091#4 40818091#5 40818091#6 237847962 927303173#2-AddedOnRampEdge 927303173#2 927303173#2-AddedOffRampEdge 927303173#5 227493794 227493792 227493793 56063744 41227410 88512247#0 88512247#1 88512247#3 48530553#2 48530553#3 48530553#4 48530553#5 48530553#0 40818502#0" />
    </vehicle>
    <vehicle id="81" depart="81.00" type="v_super_aggressive0">
        <route edges="-84820633#0 -40652485#2 -96721305 -973766008 -220031817 220031810 56063771 56063750#1 56063750#2 56063750#3 56063750#4 227493806 40587590#4 40587590#5 40587590#6 40587590#1 40587593 227493803#2 227493803#3 40587578 40520969 238376113 238376111 238376112 238376114#0 264549779 430879927#0 72630811#0 238376161 238376186 238376185 876072443 876072444#1 876072438" />
    </vehicle>
    <vehicle id="82" depart="82.00" type="v_super_aggressive1">
        <route edges="85587669 285274478#1 838535589 227493803#7 227493803#0 227493803#1 227493803#2 227493803#3 40587578 40520969 238376113 238376111 238376112 238376114#0 264549779 430879927#0 72630811#0 238376161 238376186 -238376186" />
    </vehicle>
    <vehicle id="83" depart="83.00" type="v_super_aggressive3">
        <route edges="-85526147 -237847952 364450060 237847766#5 237847766#6 237847766#1 70461429 237847836 40818091#6 40818091#7 70461430 -848288494 70461433 70461432#1 70461432#2 85587732 -237847888 237847883 838525359 40818005#2 85587733 -237862570 40818071 40818007#1 237862579 -238376172 238376201 40818012#1 40818012#2 40818012#3 41438576#0 41438576#1 41438576#2 41438576#3" />
    </vehicle>
    <vehicle id="84" depart="84.00" type="v_super_aggressive2">
        <route edges="-656799565#1 656799565#1 656799565#2 656799565#3 656799563#2 -96721299 476660218 40652485#1 40652485#2 40652485#3 189422934#2 189422934#3 189422934#4 43159188#0 43159188#1 189422936#1 -70461445#2 -56670963#1 -56670963#0" />
    </vehicle>
    <vehicle id="85" depart="85.00" type="v_super_aggressive4">
        <route edges="927303173#5 227493794 227493792 227493793 56063744 41227410 220031785 56063750#2 56063750#3 56063750#4 227493806 40587590#4 40587590#5 40587590#6 40587590#1 40587593 227493803#2 227493803#3 40587578 40520969 238376113 238376111 238376226 238376135#0 285274495#0 285274495#1 -55937248 402752409" />
    </vehicle>
    <vehicle id="87" depart="87.00" type="v_super_aggressive3">
        <route edges="656799557#0 656799555#0 656799555#1 656799555#2 -656799555#2" />
    </vehicle>
    <vehicle id="88" depart="88.00" type="v_super_aggressive1">
        <route edges="-354660207 354660196#5 364449968 476660218 363624636 -973766008 -220031817 220031810 56063771 56063750#1 56063750#2 56063750#3 56063750#4 227493806 40587590#4 40587590#5 40587590#6 40587590#1 40587593 227493803#2 227493803#3 40587578 40520969 238376113 238376111 238376112 238376114#0 264549779 430879927#0 72630811#0 238376161 -238376144#3 238376144#3" />
    </vehicle>
    <vehicle id="89" depart="89.00" type="v_super_aggressive0">
        <route edges="238376123 41438522#1 41438522#2 41438522#3 238376122 238376124 41438524#0 238376202 238376174 238376215 41438527#1 41438527#2 41438527#3 238376190" />
    </vehicle>
    <vehicle id="90" depart="90.00" type="v_super_aggressive0">
        <route edges="55936638 274062278#0 238376188 40818012#3 40818012#4 40818012#5 40818043 238376172 237862576 40818007#3 69332772#0 238376149#3 238376141#0 41438524#4 -238376124 41438595" />
    </vehicle>
    <vehicle id="91" depart="91.00" type="v_super_aggressive2">
        <route edges="96577622#1 96577619 973766008 96721305 40652485#2 40652485#3 189422934#2 189422934#3 189422934#4 43159188#0 -366484189#1" />
    </vehicle>
    <vehicle id="92" depart="92.00" type="v_super_aggressive1">
        <route edges="237862582 40818005#6 40818079 264550011 237847888 237847866 70461432#4 70461432#5 96722456 85587734 85587735 40818091#1 40818091#2 40818091#3 40818091#4 40818091#5 40818091#6 237847962 927303173#2-AddedOnRampEdge 927303173#2 927303173#2-AddedOffRampEdge 927303173#5 227493794 227493792 227493793 56063744 41227410 88512247#0 88512247#1 88512247#3 48530553#2 48530553#3 48530553#4 48530553#5 48530553#0 40818502#0 40818502#0-AddedOffRampEdge 48530552 48530552-AddedOffRampEdge 227493795#0" />
    </vehicle>
    <vehicle id="94" depart="94.00" type="v_super_aggressive1">
        <route edges="-656799553#0 656799565#2 656799565#3 656799563#2 -96721299 476660218 363624636 -973766008 -220031817 220031810 56063771 56063750#1 56063750#2 56063750#3 56063750#4 227493806 40587590#4 40587590#5 40587590#6 40587590#1 40587593 227493803#2 227493803#3 40587578 40520969 238376113 238376111 238376112 238376114#0 264549779 430879927#0 72630811#0 238376161 238376168" />
    </vehicle>
    <vehicle id="95" depart="95.00" type="v_super_aggressive3">
        <route edges="238376121 -41438583#2 41438483#3 85956361#0 238376151#3 55936634#0 55936634#1 55936634#2 55936634#3 55936634#4 40818012#5 40818043 238376172 237862576 40818007#3 40818007#4 40818007#5 237862581 237862570 237862571 40818005#4 40818005#5 40818005#6 40818079 264550011 237847888 237847866 70461432#4 70461432#5 96722456 85587734 85587735 40818091#1 40818091#2 40818091#3 40818091#4 237847958 237847766#3 237847766#4 237847766#5 237847767 354660196#3 354660196#4 354660196#5 364449968 476660218 363624636 -973766008 -96577619" />
    </vehicle>
    <vehicle id="97" depart="97.00" type="v_super_aggressive0">
        <route edges="238376146#1 402752560 238376241#0 238376241#1 41438539#2 41438665 238376133#0 238376133#3 237862573 41438534#4 237862578 -237862587 237862582 40818005#6 40818079 264550011 237847888 237847866 70461432#4 70461432#5 96722456 85587734 85587735 40818091#1 40818091#2 40818091#3 40818091#4 237847958 237847766#3 237847766#4 237847766#5 237847767 354660200 -1349412675#2 848284396" />
    </vehicle>
    <vehicle id="99" depart="99.00" type="v_super_aggressive0">