<?xml version="1.0" encoding="UTF-8"?>

<!-- generated on 2025-02-03 12:25:05.033124 by randomTrips.py UNKNOWN
<configuration>
    <net-file value="ufscar/osm.net.xml"/>
    <additional-files value="ufscar/park.add.xml"/>
    <output-trip-file value="ufscar/randtrips.trips.xml"/>
    <route-file value="ufscar/randtrips.rou.xml"/>
    <validate value="True"/>
    <end value="100.0"/>
</configuration>
-->

<!-- generated on 2025-02-03 12:25:05 by Eclipse SUMO duarouter Version 1.21.0
<duarouterConfiguration xmlns:xsi="http://www.w3.org/2001/XMLSchema-instance" xsi:noNamespaceSchemaLocation="http://sumo.dlr.de/xsd/duarouterConfiguration.xsd">

    <input>
        <net-file value="ufscar/osm.net.xml"/>
        <additional-files value="ufscar/park.add.xml"/>
        <route-files value="ufscar/randtrips.trips.xml"/>
    </input>

    <output>
        <output-file value="ufscar/randtrips.trips.xml.tmp"/>
        <alternatives-output value="NUL"/>
        <write-trips value="true"/>
    </output>

    <time>
        <begin value="0"/>
        <end value="100.0"/>
    </time>

    <report>
        <no-warnings value="true"/>
        <ignore-errors value="true"/>
        <no-step-log value="true"/>
    </report>

</duarouterConfiguration>
-->

<routes xmlns:xsi="http://www.w3.org/2001/XMLSchema-instance" xsi:noNamespaceSchemaLocation="http://sumo.dlr.de/xsd/routes_file.xsd">
    <trip id="0" depart="0.00" from="41227410" to="-237532646"/>
    <trip id="1" depart="1.00" from="-95827734#0" to="-848288494"/>
    <trip id="2" depart="2.00" from="56063750#1" to="41438598"/>
    <trip id="3" depart="3.00" from="87187527" to="-274062294"/>
    <trip id="4" depart="4.00" from="238376121" to="-237532652#0"/>
    <trip id="5" depart="5.00" from="-667058935" to="238376227"/>
    <trip id="6" depart="6.00" from="-237532646" to="-656799560#3"/>
    <trip id="7" depart="7.00" from="41227685#1" to="28828222#1"/>
    <trip id="8" depart="8.00" from="-667572877#2" to="40587578"/>
    <trip id="9" depart="9.00" from="656799557#1" to="-189422934#2"/>
    <trip id="10" depart="10.00" from="656799555#2" to="42118648#1-AddedOnRampEdge"/>
    <trip id="12" depart="12.00" from="95827734#1" to="227493793"/>
    <trip id="13" depart="13.00" from="-274062294" to="-366484189#0"/>
    <trip id="15" depart="15.00" from="656799557#0" to="55936638"/>
    <trip id="16" depart="16.00" from="264550011" to="95933113#1"/>
    <trip id="17" depart="17.00" from="237847883" to="354660207"/>
    <trip id="18" depart="18.00" from="668154447" to="40818099"/>
    <trip id="19" depart="19.00" from="85587674" to="402752543#0"/>
    <trip id="20" depart="20.00" from="43159187" to="-238376119"/>
    <trip id="21" depart="21.00" from="-84820633#0" to="-96721310#0"/>
    <trip id="22" depart="22.00" from="-238376217#1" to="-87181339"/>
    <trip id="23" depart="23.00" from="-366484189#1" to="-96577619"/>
    <trip id="24" depart="24.00" from="40818502#0" to="237847824"/>
    <trip id="25" depart="25.00" from="237532657#0" to="-656799565#3"/>
    <trip id="26" depart="26.00" from="-905782210" to="927303174#1"/>
    <trip id="27" depart="27.00" from="41227653#3" to="40652485#2"/>
    <trip id="31" depart="31.00" from="354660207" to="41438680"/>
    <trip id="33" depart="33.00" from="-84820633#1" to="-237847742"/>
    <trip id="34" depart="34.00" from="189422934#3" to="-95827734#1"/>
    <trip id="35" depart="35.00" from="-656799563#1" to="933870198"/>
    <trip id="36" depart="36.00" from="87181329" to="218728083"/>
    <trip id="37" depart="37.00" from="41227776#3" to="237862583"/>
    <trip id="38" depart="38.00" from="876072445" to="238376182#1"/>
    <trip id="42" depart="42.00" from="237862580" to="-83612836#0"/>
    <trip id="43" depart="43.00" from="973766008" to="238376232"/>
    <trip id="44" depart="44.00" from="-264549807" to="-238376124"/>
    <trip id="45" depart="45.00" from="-40520969" to="40818359"/>
    <trip id="47" depart="47.00" from="-238376157" to="237862571"/>
    <trip id="48" depart="48.00" from="96722456" to="264549928"/>
    <trip id="49" depart="49.00" from="95827743#1" to="848284395"/>
    <trip id="50" depart="50.00" from="-189422934#6" to="55936634#0"/>
    <trip id="51" depart="51.00" from="41438667#0" to="285274490"/>
    <trip id="52" depart="52.00" from="-905782210" to="41227653#0"/>
    <trip id="53" depart="53.00" from="-40652485#0" to="238376146#1"/>
    <trip id="54" depart="54.00" from="238376161" to="95827730#2"/>
    <trip id="55" depart="55.00" from="87181325" to="-94338555"/>
    <trip id="57" depart="57.00" from="876072442" to="85587732"/>
    <trip id="58" depart="58.00" from="-96721305" to="41227469#2"/>
    <trip id="62" depart="62.00" from="-1285875854" to="220031784#4"/>
    <trip id="64" depart="64.00" from="87181335#2" to="69332772#0"/>
    <trip id="65" depart="65.00" from="1349412675#0" to="-238376147#0"/>
    <trip id="66" depart="66.00" from="87181335#0" to="95827729#1"/>
    <trip id="67" depart="67.00" from="-238376239#0" to="238376209"/>
    <trip id="70" depart="70.00" from="238376192" to="354660200"/>
    <trip id="71" depart="71.00" from="-876072441" to="85587734"/>
    <trip id="72" depart="72.00" from="238376122" to="-667058935"/>
    <trip id="73" depart="73.00" from="274062294" to="55936638"/>
    <trip id="74" depart="74.00" from="-656799557#1" to="189422936#1"/>
    <trip id="75" depart="75.00" from="96721310#2" to="41227776#0"/>
    <trip id="76" depart="76.00" from="238376144#2" to="238376241#1"/>
    <trip id="78" depart="78.00" from="220031786" to="40587577"/>
    <trip id="79" depart="79.00" from="-84820633#1" to="-84820633#0"/>
    <trip id="80" depart="80.00" from="-238376183" to="40818502#0"/>
    <trip id="81" depart="81.00" from="-84820633#0" to="876072438"/>
    <trip id="82" depart="82.00" from="85587669" to="-238376186"/>
    <trip id="83" depart="83.00" from="-85526147" to="41438576#3"/>
    <trip id="84" depart="84.00" from="-656799565#1" to="-56670963#0"/>
    <trip id="85" depart="85.00" from="927303173#5" to="402752409"/>
    <trip id="87" depart="87.00" from="656799557#0" to="-656799555#2"/>
    <trip id="88" depart="88.00" from="-354660207" to="238376144#3"/>
    <trip id="89" depart="89.00" from="238376123" to="238376190"/>
    <trip id="90" depart="90.00" from="55936638" to="41438595"/>
    <trip id="91" depart="91.00" from="96577622#1" to="-366484189#1"/>
    <trip id="92" depart="92.00" from="237862582" to="227493795#0"/>
    <trip id="94" depart="94.00" from="-656799553#0" to="238376168"/>
    <trip id="95" depart="95.00" from="238376121" to="-96577619"/>
    <trip id="97" depart="97.00" from="238376146#1" to="848284396"/>
    <trip id="99" depart="99.00" from="974131307" to="70461433"/>
</routes>
