<routes xmlns:xsi="http://www.w3.org/2001/XMLSchema-instance" xsi:noNamespaceSchemaLocation="http://sumo.dlr.de/xsd/routes_file.xsd">

<!-- BEGIN - LLM Generated trips -->

<!-- Vehicles -->
<vTypeDistribution id="aggressive">
	<vType id="v_aggressive0" minGap="0.53" accel="4.05" decel="5.48" startupDelay="0.94" sigma="0.5" tau="2.84" maxSpeed="131.78" speedFactor="1.23" lcStrategic="1.68" lcCooperative="0.24" lcSpeedGain="3.78" lcKeepRight="0.85" lcOvertakeRight="0.29" lcSpeedGainLookahead="2.84" lcOvertakeDeltaSpeedFactor="0.53" lcPushy="0.65" lcAssertive="2.94" lcImpatience="0.67" lcTimeToImpatience="1.7" lcLaneDiscipline="0.55" lcSigma="0.43" lcAccelLat="3.67" probability="0.132827118460643">
		<param key="device.rerouting.probability" value="1.0"/>
		<param key="device.rerouting.adaptation-steps" value="18"/>
		<param key="device.rerouting.adaptation-interval" value="10"/>
	</vType>
	<vType id="v_aggressive1" minGap="0.88" accel="3.66" decel="4.92" startupDelay="0.58" sigma="0.5" tau="2.61" maxSpeed="125.99" speedFactor="1.35" lcStrategic="1.53" lcCooperative="0.28" lcSpeedGain="3.16" lcKeepRight="0.72" lcOvertakeRight="0.4" lcSpeedGainLookahead="3.2" lcOvertakeDeltaSpeedFactor="0.51" lcPushy="0.81" lcAssertive="3.61" lcImpatience="0.69" lcTimeToImpatience="1.59" lcLaneDiscipline="0.77" lcSigma="0.4" lcAccelLat="3.73" probability="0.14050078266703617">
		<param key="device.rerouting.probability" value="1.0"/>
		<param key="device.rerouting.adaptation-steps" value="18"/>
		<param key="device.rerouting.adaptation-interval" value="10"/>
	</vType>
	<vType id="v_aggressive2" minGap="0.99" accel="4.42" decel="5.61" startupDelay="0.74" sigma="0.42" tau="2.46" maxSpeed="129.32" speedFactor="1.34" lcStrategic="1.27" lcCooperative="0.22" lcSpeedGain="3.5" lcKeepRight="0.67" lcOvertakeRight="0.3" lcSpeedGainLookahead="3.33" lcOvertakeDeltaSpeedFactor="0.61" lcPushy="0.66" lcAssertive="3.09" lcImpatience="0.87" lcTimeToImpatience="1.44" lcLaneDiscipline="0.69" lcSigma="0.48" lcAccelLat="2.02" probability="0.19123788310618484">
		<param key="device.rerouting.probability" value="1.0"/>
		<param key="device.rerouting.adaptation-steps" value="18"/>
		<param key="device.rerouting.adaptation-interval" value="10"/>
	</vType>
	<vType id="v_aggressive3" minGap="0.75" accel="3.92" decel="4.66" startupDelay="0.85" sigma="0.38" tau="2.68" maxSpeed="146.01" speedFactor="1.25" lcStrategic="1.74" lcCooperative="0.25" lcSpeedGain="2.92" lcKeepRight="0.69" lcOvertakeRight="0.38" lcSpeedGainLookahead="3.66" lcOvertakeDeltaSpeedFactor="0.84" lcPushy="0.54" lcAssertive="3.22" lcImpatience="0.57" lcTimeToImpatience="1.24" lcLaneDiscipline="0.64" lcSigma="0.4" lcAccelLat="2.88" probability="0.16425668064578897">
		<param key="device.rerouting.probability" value="1.0"/>
		<param key="device.rerouting.adaptation-steps" value="18"/>
		<param key="device.rerouting.adaptation-interval" value="10"/>
	</vType>
	<vType id="v_aggressive4" minGap="0.62" accel="3.65" decel="5.03" startupDelay="0.72" sigma="0.45" tau="2.36" maxSpeed="127.36" speedFactor="1.28" lcStrategic="1.27" lcCooperative="0.14" lcSpeedGain="2.95" lcKeepRight="0.73" lcOvertakeRight="0.33" lcSpeedGainLookahead="3.11" lcOvertakeDeltaSpeedFactor="0.79" lcPushy="0.51" lcAssertive="2.22" lcImpatience="0.68" lcTimeToImpatience="1.26" lcLaneDiscipline="0.83" lcSigma="0.38" lcAccelLat="3.14" probability="0.3711775351203471">
		<param key="device.rerouting.probability" value="1.0"/>
		<param key="device.rerouting.adaptation-steps" value="18"/>
		<param key="device.rerouting.adaptation-interval" value="10"/>
	</vType>
</vTypeDistribution>
<vTypeDistribution id="normal">
	<vType id="v_normal0" minGap="1.53" accel="1.86" decel="3.38" startupDelay="1.35" sigma="0.28" tau="3.82" maxSpeed="108.68" speedFactor="1.19" lcStrategic="0.65" lcCooperative="0.6" lcSpeedGain="1.77" lcKeepRight="0.89" lcOvertakeRight="0.23" lcSpeedGainLookahead="1.57" lcOvertakeDeltaSpeedFactor="0.41" lcPushy="0.39" lcAssertive="1.65" lcImpatience="0.28" lcTimeToImpatience="3.39" lcLaneDiscipline="0.92" lcSigma="0.36" lcAccelLat="1.22" probability="0.2734207828130864">
		<param key="device.rerouting.probability" value="1.0"/>
		<param key="device.rerouting.adaptation-steps" value="18"/>
		<param key="device.rerouting.adaptation-interval" value="10"/>
	</vType>
	<vType id="v_normal1" minGap="1.76" accel="3.33" decel="2.76" startupDelay="1.34" sigma="0.24" tau="4.0" maxSpeed="110.48" speedFactor="1.04" lcStrategic="0.72" lcCooperative="0.64" lcSpeedGain="0.82" lcKeepRight="0.89" lcOvertakeRight="0.25" lcSpeedGainLookahead="1.09" lcOvertakeDeltaSpeedFactor="0.43" lcPushy="0.36" lcAssertive="1.46" lcImpatience="0.3" lcTimeToImpatience="2.64" lcLaneDiscipline="0.88" lcSigma="0.5" lcAccelLat="2.08" probability="0.11058542301349335">
		<param key="device.rerouting.probability" value="1.0"/>
		<param key="device.rerouting.adaptation-steps" value="18"/>
		<param key="device.rerouting.adaptation-interval" value="10"/>
	</vType>
	<vType id="v_normal2" minGap="1.51" accel="2.51" decel="3.72" startupDelay="1.15" sigma="0.37" tau="3.57" maxSpeed="127.88" speedFactor="1.01" lcStrategic="0.68" lcCooperative="0.56" lcSpeedGain="1.59" lcKeepRight="0.93" lcOvertakeRight="0.17" lcSpeedGainLookahead="1.79" lcOvertakeDeltaSpeedFactor="0.41" lcPushy="0.29" lcAssertive="1.88" lcImpatience="0.38" lcTimeToImpatience="3.12" lcLaneDiscipline="0.88" lcSigma="0.34" lcAccelLat="2.13" probability="0.29159054074812524">
		<param key="device.rerouting.probability" value="1.0"/>
		<param key="device.rerouting.adaptation-steps" value="18"/>
		<param key="device.rerouting.adaptation-interval" value="10"/>
	</vType>
	<vType id="v_normal3" minGap="1.45" accel="2.97" decel="3.7" startupDelay="1.23" sigma="0.31" tau="3.87" maxSpeed="108.04" speedFactor="1.02" lcStrategic="0.85" lcCooperative="0.62" lcSpeedGain="1.23" lcKeepRight="0.88" lcOvertakeRight="0.23" lcSpeedGainLookahead="2.65" lcOvertakeDeltaSpeedFactor="0.48" lcPushy="0.42" lcAssertive="1.45" lcImpatience="0.39" lcTimeToImpatience="3.34" lcLaneDiscipline="0.84" lcSigma="0.27" lcAccelLat="1.77" probability="0.20336492818391524">
		<param key="device.rerouting.probability" value="1.0"/>
		<param key="device.rerouting.adaptation-steps" value="18"/>
		<param key="device.rerouting.adaptation-interval" value="10"/>
	</vType>
	<vType id="v_normal4" minGap="1.54" accel="2.1" decel="3.15" startupDelay="1.51" sigma="0.22" tau="3.5" maxSpeed="118.84" speedFactor="1.06" lcStrategic="0.99" lcCooperative="0.61" lcSpeedGain="1.38" lcKeepRight="0.86" lcOvertakeRight="0.26" lcSpeedGainLookahead="1.72" lcOvertakeDeltaSpeedFactor="0.24" lcPushy="0.27" lcAssertive="1.84" lcImpatience="0.47" lcTimeToImpatience="3.31" lcLaneDiscipline="0.9" lcSigma="0.33" lcAccelLat="2.04" probability="0.12103832524137977">
		<param key="device.rerouting.probability" value="1.0"/>
		<param key="device.rerouting.adaptation-steps" value="18"/>
		<param key="device.rerouting.adaptation-interval" value="10"/>
	</vType>
</vTypeDistribution>
<vTypeDistribution id="cautious">
	<vType id="v_cautious0" minGap="2.39" accel="2.11" decel="2.3" startupDelay="1.7" sigma="0.19" tau="4.86" maxSpeed="86.88" speedFactor="0.84" lcStrategic="0.31" lcCooperative="0.86" lcSpeedGain="0.85" lcKeepRight="1.17" lcOvertakeRight="0.03" lcSpeedGainLookahead="1.5" lcOvertakeDeltaSpeedFactor="0.02" lcPushy="0.07" lcAssertive="1.0" lcImpatience="0.15" lcTimeToImpatience="5.48" lcLaneDiscipline="1.07" lcSigma="0.3" lcAccelLat="1.38" probability="0.20127829114040885">
		<param key="device.rerouting.probability" value="1.0"/>
		<param key="device.rerouting.adaptation-steps" value="18"/>
		<param key="device.rerouting.adaptation-interval" value="10"/>
	</vType>
	<vType id="v_cautious1" minGap="2.73" accel="2.08" decel="2.0" startupDelay="1.71" sigma="0.21" tau="4.65" maxSpeed="91.32" speedFactor="0.89" lcStrategic="0.38" lcCooperative="0.84" lcSpeedGain="0.59" lcKeepRight="1.1" lcOvertakeRight="0.04" lcSpeedGainLookahead="0.81" lcOvertakeDeltaSpeedFactor="0.09" lcPushy="0.21" lcAssertive="1.0" lcImpatience="0.14" lcTimeToImpatience="4.86" lcLaneDiscipline="1.16" lcSigma="0.43" lcAccelLat="1.54" probability="0.31751119796113303">
		<param key="device.rerouting.probability" value="1.0"/>
		<param key="device.rerouting.adaptation-steps" value="18"/>
		<param key="device.rerouting.adaptation-interval" value="10"/>
	</vType>
	<vType id="v_cautious2" minGap="2.7" accel="1.83" decel="1.87" startupDelay="1.92" sigma="0.32" tau="4.74" maxSpeed="103.87" speedFactor="0.95" lcStrategic="0.41" lcCooperative="0.9" lcSpeedGain="0.69" lcKeepRight="1.11" lcOvertakeRight="0.05" lcSpeedGainLookahead="0.85" lcOvertakeDeltaSpeedFactor="-0.54" lcPushy="0.25" lcAssertive="1.0" lcImpatience="0.11" lcTimeToImpatience="3.75" lcLaneDiscipline="1.07" lcSigma="0.23" lcAccelLat="0.8" probability="0.07187818486996804">
		<param key="device.rerouting.probability" value="1.0"/>
		<param key="device.rerouting.adaptation-steps" value="18"/>
		<param key="device.rerouting.adaptation-interval" value="10"/>
	</vType>
	<vType id="v_cautious3" minGap="2.29" accel="2.18" decel="1.54" startupDelay="1.85" sigma="0.23" tau="4.47" maxSpeed="106.45" speedFactor="0.91" lcStrategic="0.2" lcCooperative="0.91" lcSpeedGain="0.7" lcKeepRight="1.11" lcOvertakeRight="0.04" lcSpeedGainLookahead="1.46" lcOvertakeDeltaSpeedFactor="0.15" lcPushy="0.28" lcAssertive="1.0" lcImpatience="0.2" lcTimeToImpatience="4.23" lcLaneDiscipline="1.07" lcSigma="0.29" lcAccelLat="1.24" probability="0.15512650130208863">
		<param key="device.rerouting.probability" value="1.0"/>
		<param key="device.rerouting.adaptation-steps" value="18"/>
		<param key="device.rerouting.adaptation-interval" value="10"/>
	</vType>
	<vType id="v_cautious4" minGap="2.31" accel="2.03" decel="1.91" startupDelay="1.58" sigma="0.27" tau="5.07" maxSpeed="91.91" speedFactor="0.89" lcStrategic="0.4" lcCooperative="0.88" lcSpeedGain="0.75" lcKeepRight="1.09" lcOvertakeRight="0.09" lcSpeedGainLookahead="1.7" lcOvertakeDeltaSpeedFactor="0.1" lcPushy="0.17" lcAssertive="1.0" lcImpatience="0.22" lcTimeToImpatience="4.47" lcLaneDiscipline="1.14" lcSigma="0.3" lcAccelLat="1.96" probability="0.2542058247264014">
		<param key="device.rerouting.probability" value="1.0"/>
		<param key="device.rerouting.adaptation-steps" value="18"/>
		<param key="device.rerouting.adaptation-interval" value="10"/>
	</vType>
</vTypeDistribution>
<vTypeDistribution id="super_aggressive">
	<vType id="v_super_aggressive0" minGap="0.38" accel="3.52" decel="5.93" startupDelay="0.42" sigma="0.76" tau="2.36" maxSpeed="156.82" speedFactor="1.58" lcStrategic="3.42" lcCooperative="0.06" lcSpeedGain="3.74" lcKeepRight="0.34" lcOvertakeRight="0.59" lcSpeedGainLookahead="3.55" lcOvertakeDeltaSpeedFactor="1.0" lcPushy="0.94" lcAssertive="4.41" lcImpatience="1.0" lcTimeToImpatience="0.89" lcLaneDiscipline="0.3" lcSigma="0.56" lcAccelLat="4.62" probability="0.3358496449572927">
		<param key="device.rerouting.probability" value="1.0"/>
		<param key="device.rerouting.adaptation-steps" value="18"/>
		<param key="device.rerouting.adaptation-interval" value="10"/>
	</vType>
	<vType id="v_super_aggressive1" minGap="0.43" accel="4.99" decel="6.55" startupDelay="0.37" sigma="0.6" tau="3.12" maxSpeed="162.6" speedFactor="1.68" lcStrategic="2.74" lcCooperative="0.19" lcSpeedGain="3.9" lcKeepRight="0.54" lcOvertakeRight="0.49" lcSpeedGainLookahead="5.66" lcOvertakeDeltaSpeedFactor="0.88" lcPushy="0.92" lcAssertive="4.02" lcImpatience="1.0" lcTimeToImpatience="0.81" lcLaneDiscipline="0.36" lcSigma="0.65" lcAccelLat="3.19" probability="0.06873293972988934">
		<param key="device.rerouting.probability" value="1.0"/>
		<param key="device.rerouting.adaptation-steps" value="18"/>
		<param key="device.rerouting.adaptation-interval" value="10"/>
	</vType>
	<vType id="v_super_aggressive2" minGap="0.29" accel="4.77" decel="6.82" startupDelay="0.41" sigma="0.66" tau="2.67" maxSpeed="142.95" speedFactor="1.65" lcStrategic="3.67" lcCooperative="0.11" lcSpeedGain="3.29" lcKeepRight="0.48" lcOvertakeRight="0.64" lcSpeedGainLookahead="4.33" lcOvertakeDeltaSpeedFactor="0.92" lcPushy="0.92" lcAssertive="3.55" lcImpatience="1.0" lcTimeToImpatience="0.86" lcLaneDiscipline="0.32" lcSigma="0.61" lcAccelLat="4.96" probability="0.1645932597559835">
		<param key="device.rerouting.probability" value="1.0"/>
		<param key="device.rerouting.adaptation-steps" value="18"/>
		<param key="device.rerouting.adaptation-interval" value="10"/>
	</vType>
	<vType id="v_super_aggressive3" minGap="0.46" accel="6.14" decel="6.3" startupDelay="0.3" sigma="0.53" tau="2.14" maxSpeed="141.24" speedFactor="1.59" lcStrategic="3.0" lcCooperative="0.03" lcSpeedGain="4.02" lcKeepRight="0.23" lcOvertakeRight="0.68" lcSpeedGainLookahead="4.98" lcOvertakeDeltaSpeedFactor="0.79" lcPushy="0.81" lcAssertive="3.47" lcImpatience="1.0" lcTimeToImpatience="0.75" lcLaneDiscipline="0.34" lcSigma="0.51" lcAccelLat="4.1" probability="0.1565251346085808">
		<param key="device.rerouting.probability" value="1.0"/>
		<param key="device.rerouting.adaptation-steps" value="18"/>
		<param key="device.rerouting.adaptation-interval" value="10"/>
	</vType>
	<vType id="v_super_aggressive4" minGap="0.42" accel="5.43" decel="5.41" startupDelay="0.39" sigma="0.48" tau="1.95" maxSpeed="158.19" speedFactor="1.57" lcStrategic="3.58" lcCooperative="0.06" lcSpeedGain="4.08" lcKeepRight="0.33" lcOvertakeRight="0.6" lcSpeedGainLookahead="3.95" lcOvertakeDeltaSpeedFactor="0.92" lcPushy="0.83" lcAssertive="3.99" lcImpatience="1.0" lcTimeToImpatience="0.88" lcLaneDiscipline="0.37" lcSigma="0.49" lcAccelLat="4.39" probability="0.27429902094825365">
		<param key="device.rerouting.probability" value="1.0"/>
		<param key="device.rerouting.adaptation-steps" value="18"/>
		<param key="device.rerouting.adaptation-interval" value="10"/>
	</vType>
</vTypeDistribution>

<!-- Trips -->
<trip id="veh1" type="aggressive" depart="0" from="-75259406#0" to="-75259406#0">
	<stop parkingArea="pa75679328#1" duration="10"/>
	<stop parkingArea="pa75679335#1" duration="10"/>
	<stop parkingArea="pa75679328#1" duration="10"/>
	<stop parkingArea="pa75679335#1" duration="10"/>
	<stop parkingArea="pa75679337#0" duration="10"/>
	<stop parkingArea="pa75679335#1" duration="10"/>
	<stop parkingArea="pa75679328#1" duration="10"/>
	<stop parkingArea="pa70200195#7" duration="10"/>
	<stop parkingArea="pa75679335#1" duration="10"/>
	<stop parkingArea="pa-75259406#0" duration="10"/>
	<stop parkingArea="pa-75679328#1" duration="10"/>
	<stop parkingArea="pa75679335#1" duration="10"/>
	<stop parkingArea="pa75679328#1" duration="10"/>
</trip>
<trip id="veh2" type="normal" depart="0" from="-75259406#0" to="-75259406#0">
	<stop parkingArea="pa75679328#1" duration="10"/>
	<stop parkingArea="pa-563505769#2" duration="10"/>
	<stop parkingArea="pa75679328#1" duration="10"/>
	<stop parkingArea="pa-563505769#2" duration="10"/>
	<stop parkingArea="pa72508815#16" duration="10"/>
	<stop parkingArea="pa-563505769#2" duration="10"/>
	<stop parkingArea="pa90743683#0" duration="20"/>
	<stop parkingArea="pa-563505769#2" duration="10"/>
	<stop parkingArea="pa72508815#16" duration="20"/>
</trip>
<trip id="veh3" type="cautious" depart="0" from="-75259406#0" to="-75259406#0">
	<stop parkingArea="pa75679328#1" duration="10"/>
	<stop parkingArea="pa75679335#1" duration="10"/>
	<stop parkingArea="pa75679328#1" duration="10"/>
	<stop parkingArea="pa75679335#1" duration="10"/>
	<stop parkingArea="pa-75679328#1" duration="10"/>
	<stop parkingArea="pa75679335#1" duration="10"/>
	<stop parkingArea="pa75679328#1" duration="20"/>
	<stop parkingArea="pa75679335#1" duration="10"/>
	<stop parkingArea="pa70200195#7" duration="10"/>
	<stop parkingArea="pa-75679328#1" duration="10"/>
	<stop parkingArea="pa75679335#1" duration="10"/>
</trip>
<trip id="veh4" type="super_aggressive" depart="0" from="-75259406#0" to="-75259406#0">
	<stop parkingArea="pa75679328#1" duration="10"/>
	<stop parkingArea="pa-75679328#1" duration="40"/>
	<stop parkingArea="pa447326049#7" duration="10"/>
	<stop parkingArea="pa75259403" duration="30"/>
	<stop parkingArea="pa447326049#7" duration="10"/>
	<stop parkingArea="pa-75679328#1" duration="10"/>
	<stop parkingArea="pa447326049#7" duration="10"/>
	<stop parkingArea="pa75679328#1" duration="20"/>
</trip>


 <!-- END - LLM Generated trips -->

<!-- BEGIN - Random Trips -->


</routes>