<routes xmlns:xsi="http://www.w3.org/2001/XMLSchema-instance" xsi:noNamespaceSchemaLocation="http://sumo.dlr.de/xsd/routes_file.xsd">

<!-- BEGIN - LLM Generated trips -->

<!-- Vehicles -->
<vTypeDistribution id="aggressive">
	<vType id="v_aggressive0" minGap="0.7" accel="2.73" decel="3.14" startupDelay="0.97" sigma="0.31" tau="1.85" maxSpeed="141.61" speedFactor="1.38" lcStrategic="2.8" lcCooperative="0.26" lcSpeedGain="4.14" lcKeepRight="2.05" lcOvertakeRight="0.65" lcSpeedGainLookahead="3.95" lcOvertakeDeltaSpeedFactor="1.0" lcPushy="0.68" lcAssertive="2.45" lcImpatience="0.0" lcTimeToImpatience="1.68" lcLaneDiscipline="0.34" lcSigma="0.5" lcAccelLat="2.76" probability="0.19158161333573354">
		<param key="device.rerouting.probability" value="1.0"/>
		<param key="device.rerouting.adaptation-steps" value="18"/>
		<param key="device.rerouting.adaptation-interval" value="10"/>
	</vType>
	<vType id="v_aggressive1" minGap="0.81" accel="2.45" decel="1.65" startupDelay="0.87" sigma="0.45" tau="1.63" maxSpeed="125.22" speedFactor="1.34" lcStrategic="3.43" lcCooperative="0.4" lcSpeedGain="3.44" lcKeepRight="2.09" lcOvertakeRight="0.43" lcSpeedGainLookahead="2.63" lcOvertakeDeltaSpeedFactor="0.83" lcPushy="0.64" lcAssertive="4.89" lcImpatience="0.0" lcTimeToImpatience="1.54" lcLaneDiscipline="0.35" lcSigma="0.39" lcAccelLat="3.66" probability="0.1650109611797589">
		<param key="device.rerouting.probability" value="1.0"/>
		<param key="device.rerouting.adaptation-steps" value="18"/>
		<param key="device.rerouting.adaptation-interval" value="10"/>
	</vType>
	<vType id="v_aggressive2" minGap="0.59" accel="3.77" decel="3.53" startupDelay="0.94" sigma="0.31" tau="1.09" maxSpeed="134.01" speedFactor="1.41" lcStrategic="3.09" lcCooperative="0.51" lcSpeedGain="3.31" lcKeepRight="2.42" lcOvertakeRight="0.57" lcSpeedGainLookahead="3.02" lcOvertakeDeltaSpeedFactor="0.81" lcPushy="0.79" lcAssertive="3.3" lcImpatience="0.0" lcTimeToImpatience="1.83" lcLaneDiscipline="0.29" lcSigma="0.45" lcAccelLat="2.7" probability="0.23164539311499616">
		<param key="device.rerouting.probability" value="1.0"/>
		<param key="device.rerouting.adaptation-steps" value="18"/>
		<param key="device.rerouting.adaptation-interval" value="10"/>
	</vType>
	<vType id="v_aggressive3" minGap="0.77" accel="2.58" decel="2.86" startupDelay="0.83" sigma="0.24" tau="1.71" maxSpeed="145.39" speedFactor="1.38" lcStrategic="4.79" lcCooperative="0.27" lcSpeedGain="4.99" lcKeepRight="2.99" lcOvertakeRight="0.69" lcSpeedGainLookahead="2.82" lcOvertakeDeltaSpeedFactor="0.78" lcPushy="0.73" lcAssertive="4.53" lcImpatience="0.0" lcTimeToImpatience="1.57" lcLaneDiscipline="0.38" lcSigma="0.38" lcAccelLat="3.69" probability="0.08619965572311596">
		<param key="device.rerouting.probability" value="1.0"/>
		<param key="device.rerouting.adaptation-steps" value="18"/>
		<param key="device.rerouting.adaptation-interval" value="10"/>
	</vType>
	<vType id="v_aggressive4" minGap="0.76" accel="4.18" decel="3.33" startupDelay="0.78" sigma="0.34" tau="1.43" maxSpeed="140.46" speedFactor="1.4" lcStrategic="3.58" lcCooperative="0.38" lcSpeedGain="2.63" lcKeepRight="2.67" lcOvertakeRight="0.51" lcSpeedGainLookahead="2.59" lcOvertakeDeltaSpeedFactor="0.88" lcPushy="0.67" lcAssertive="4.66" lcImpatience="0.0" lcTimeToImpatience="1.66" lcLaneDiscipline="0.31" lcSigma="0.48" lcAccelLat="3.45" probability="0.3255623766463954">
		<param key="device.rerouting.probability" value="1.0"/>
		<param key="device.rerouting.adaptation-steps" value="18"/>
		<param key="device.rerouting.adaptation-interval" value="10"/>
	</vType>
</vTypeDistribution>
<vTypeDistribution id="normal">
	<vType id="v_normal0" minGap="1.26" accel="1.63" decel="2.17" startupDelay="1.12" sigma="0.9" tau="2.62" maxSpeed="103.23" speedFactor="1.0" lcStrategic="1.15" lcCooperative="0.64" lcSpeedGain="0.51" lcKeepRight="0.62" lcOvertakeRight="0.25" lcSpeedGainLookahead="1.82" lcOvertakeDeltaSpeedFactor="0.68" lcPushy="0.16" lcAssertive="1.32" lcImpatience="-0.0" lcTimeToImpatience="9.22" lcLaneDiscipline="0.89" lcSigma="0.1" lcAccelLat="1.57" probability="0.06801660603512603">
		<param key="device.rerouting.probability" value="1.0"/>
		<param key="device.rerouting.adaptation-steps" value="18"/>
		<param key="device.rerouting.adaptation-interval" value="10"/>
	</vType>
	<vType id="v_normal1" minGap="1.19" accel="1.64" decel="1.44" startupDelay="1.31" sigma="0.83" tau="2.65" maxSpeed="91.08" speedFactor="1.04" lcStrategic="1.07" lcCooperative="0.66" lcSpeedGain="0.85" lcKeepRight="0.8" lcOvertakeRight="0.21" lcSpeedGainLookahead="1.59" lcOvertakeDeltaSpeedFactor="0.79" lcPushy="0.15" lcAssertive="1.0" lcImpatience="0.0" lcTimeToImpatience="8.33" lcLaneDiscipline="0.83" lcSigma="0.16" lcAccelLat="1.7" probability="0.2729533589856979">
		<param key="device.rerouting.probability" value="1.0"/>
		<param key="device.rerouting.adaptation-steps" value="18"/>
		<param key="device.rerouting.adaptation-interval" value="10"/>
	</vType>
	<vType id="v_normal2" minGap="1.33" accel="2.03" decel="1.76" startupDelay="1.3" sigma="0.88" tau="2.72" maxSpeed="92.78" speedFactor="1.11" lcStrategic="0.98" lcCooperative="0.64" lcSpeedGain="0.81" lcKeepRight="0.98" lcOvertakeRight="0.22" lcSpeedGainLookahead="0.7" lcOvertakeDeltaSpeedFactor="0.66" lcPushy="0.24" lcAssertive="1.25" lcImpatience="0.02" lcTimeToImpatience="7.95" lcLaneDiscipline="0.91" lcSigma="0.29" lcAccelLat="0.86" probability="0.2804754688122105">
		<param key="device.rerouting.probability" value="1.0"/>
		<param key="device.rerouting.adaptation-steps" value="18"/>
		<param key="device.rerouting.adaptation-interval" value="10"/>
	</vType>
	<vType id="v_normal3" minGap="1.25" accel="1.9" decel="1.46" startupDelay="1.21" sigma="0.89" tau="2.53" maxSpeed="89.02" speedFactor="1.07" lcStrategic="0.88" lcCooperative="0.71" lcSpeedGain="0.75" lcKeepRight="1.04" lcOvertakeRight="0.18" lcSpeedGainLookahead="1.97" lcOvertakeDeltaSpeedFactor="0.58" lcPushy="0.13" lcAssertive="1.25" lcImpatience="0.04" lcTimeToImpatience="8.64" lcLaneDiscipline="0.85" lcSigma="0.22" lcAccelLat="1.7" probability="0.1876301398881797">
		<param key="device.rerouting.probability" value="1.0"/>
		<param key="device.rerouting.adaptation-steps" value="18"/>
		<param key="device.rerouting.adaptation-interval" value="10"/>
	</vType>
	<vType id="v_normal4" minGap="1.45" accel="1.53" decel="1.45" startupDelay="0.96" sigma="0.94" tau="2.52" maxSpeed="100.86" speedFactor="1.1" lcStrategic="0.6" lcCooperative="0.6" lcSpeedGain="0.9" lcKeepRight="0.92" lcOvertakeRight="0.2" lcSpeedGainLookahead="1.98" lcOvertakeDeltaSpeedFactor="0.67" lcPushy="0.11" lcAssertive="1.35" lcImpatience="0.1" lcTimeToImpatience="8.39" lcLaneDiscipline="0.9" lcSigma="0.23" lcAccelLat="1.54" probability="0.1909244262787859">
		<param key="device.rerouting.probability" value="1.0"/>
		<param key="device.rerouting.adaptation-steps" value="18"/>
		<param key="device.rerouting.adaptation-interval" value="10"/>
	</vType>
</vTypeDistribution>

<!-- Trips -->
<trip id="veh1" type="aggressive" depart="0" from="147379107#2" to="147379107#2">
	<stop parkingArea="pa-183876531#2" duration="10"/>
	<stop parkingArea="pa72508815#16" duration="10"/>
	<stop parkingArea="pa-183876531#2" duration="10"/>
	<stop parkingArea="pa563505769#13" duration="20"/>
	<stop parkingArea="pa-563505769#2" duration="10"/>
	<stop parkingArea="pa-183876531#2" duration="10"/>
	<stop parkingArea="pa-85631072#2" duration="20"/>
	<stop parkingArea="pa563505769#13" duration="20"/>
	<stop parkingArea="pa75701374#6" duration="10"/>
</trip>
<trip id="veh2" type="normal" depart="0" from="147379107#2" to="147379107#2">
	<stop parkingArea="pa75679328#1" duration="10"/>
	<stop parkingArea="pa72508815#16" duration="10"/>
	<stop parkingArea="pa75679328#1" duration="10"/>
	<stop parkingArea="pa269853395#1" duration="20"/>
	<stop parkingArea="pa75679328#1" duration="10"/>
	<stop parkingArea="pa-72644726#0" duration="10"/>
	<stop parkingArea="pa75679328#1" duration="10"/>
	<stop parkingArea="pa90743683#0" duration="20"/>
	<stop parkingArea="pa72508815#16" duration="20"/>
	<stop parkingArea="pa75679328#1" duration="10"/>
	<stop parkingArea="pa269853395#1" duration="10"/>
</trip>
<trip id="veh3" type="aggressive" depart="0" from="147379107#2" to="147379107#2">
	<stop parkingArea="pa-183876531#2" duration="10"/>
	<stop parkingArea="pa75679337#0" duration="10"/>
	<stop parkingArea="pa-183876531#2" duration="10"/>
	<stop parkingArea="pa563505767#1" duration="10"/>
	<stop parkingArea="pa75701374#4" duration="10"/>
	<stop parkingArea="pa-183876531#2" duration="10"/>
	<stop parkingArea="pa75701374#4" duration="10"/>
	<stop parkingArea="pa-183876531#2" duration="10"/>
	<stop parkingArea="pa-85631072#2" duration="10"/>
	<stop parkingArea="pa-183876531#2" duration="10"/>
	<stop parkingArea="pa75701374#4" duration="10"/>
</trip>
<trip id="veh4" type="normal" depart="0" from="147379107#2" to="147379107#2">
	<stop parkingArea="pa-183876531#2" duration="10"/>
	<stop parkingArea="pa75679337#0" duration="10"/>
	<stop parkingArea="pa-183876531#2" duration="10"/>
	<stop parkingArea="pa75679337#0" duration="20"/>
	<stop parkingArea="pa447326049#7" duration="10"/>
	<stop parkingArea="pa-183876531#2" duration="10"/>
	<stop parkingArea="pa-85631072#2" duration="30"/>
	<stop parkingArea="pa-183876531#2" duration="30"/>
</trip>


 <!-- END - LLM Generated trips -->

<!-- BEGIN - Random Trips -->


</routes>