<routes xmlns:xsi="http://www.w3.org/2001/XMLSchema-instance" xsi:noNamespaceSchemaLocation="http://sumo.dlr.de/xsd/routes_file.xsd">

<!-- BEGIN - LLM Generated trips -->
    <vType id="v_agg4" minGap="0.36" maxSpeed="114.14" probability="0.66" speedFactor="1.88" lcStrategic="7.26" lcCooperative="0.18" lcSpeedGain="8.74" lcKeepRight="3.96" lcPushy="0.69" lcAssertive="4.68" lcImpatience="0.94" lcTimeToImpatience="7.04" lcAccelLat="1.6" lcSpeedGainLookahead="4.34" lcOvertakeRight="0.6" lcLaneDiscipline="2.16" lcSigma="0.76" lcOvertakeDeltaSpeedFactor="0.83" accel="4.48" decel="2.54" sigma="0.72" startupDelay="0.48" tau="1.09">
        <param key="device.rerouting.adaptation-interval" value="10"/>
        <param key="device.rerouting.adaptation-steps" value="18"/>
        <param key="device.rerouting.probability" value="1.0"/>
    </vType>
    <vehicle id="veh1" type="v_agg4" depart="0.00">
        <routeDistribution last="1">
            <route cost="762.19" probability="0.49560161" edges="72644726#1 75259400#6 75259400#7 -70080981#1 -70080981#0 70200195#22 70200195#23 89478571#3 89478571#4 89478571#5 89478571#6 89478571#7 269853395#0 269853395#1 269853395#2 693637326#1 890559266#0 890559266#1 890559266#2 75679292#4 75679292#5 75679292#6 75679292#1 -183876531#7 -183876531#6 -183876531#4 -183876531#3 -183876531#2 -183876531#1 -183876531#0 447326319#0 447326319#1 447326319#2 -447326319#2 -447326319#1 -447326319#0 183876531#0 183876531#1 183876531#2 183876531#3 183876531#4 183876531#6 183876531#7 75679292#2 890559265#0 890559265#1 890559265#2 890559265#3 75679284#0 75679284#1 693637327#1 693637327#2 889999537#0 889999537#1 89478571#1 70056689#0 70056689#1 70056689#2 563505739#0 563505739#1 70200195#20 70200195#21 70080981#0 -75259405#7 -75259405#6 -72644726#0 70200195#18 563505738#0 563505738#1 70056689#4 70056689#5 70056689#6 70056689#7 70056689#8 70056689#9 70056689#10 70056689#11 70056689#12 70056689#13 70056689#14 564511808#0 564511808#1 70200195#6 70200195#7 70200195#8 70200195#9 70200195#10 -72644044#3 -72644044#2 70056689#12 70056689#13 70056689#14 70056689#16 70056689#17 183658213#0 183658213#1 -77680543#4 -77680543#3 -77680543#2 -77680543#1 -77680543#0 77680543#0 77680543#1 77680543#2 77680543#3 77680543#4 70200195#3 70200195#4 70200195#5 70200195#6 70200195#7 70200195#8 70200195#9 70200195#10 70200195#11 70200195#12 70200195#13 70200195#14 70200195#15 70200195#16 70200195#17 70200195#18 70200195#19 70200195#20 70200195#21 70080981#0 -75259405#7 -75259405#6 72644726#1 75259400#6 75259400#7 -70080981#1 -70080981#0 70200195#22 70200195#23 89478571#3 89478571#4 89478571#5 89478571#6 89478571#7 269853395#0 269853395#1 269853395#2 693637326#1 890559266#0 890559266#1 890559266#2 75679292#4 75679292#5 75679292#6 75679292#1 -183876531#7 -183876531#6 -183876531#4 -183876531#3 -183876531#2 -183876531#1 -183876531#0 447326319#0 447326319#1 447326319#2 -447326319#2 -447326319#1 -447326319#0 183876531#0 183876531#1 183876531#2 183876531#3 183876531#4 183876531#6 183876531#7 75679292#2 890559265#0 890559265#1 890559265#2 890559265#3 75679284#0 75679284#1 693637327#1 693637327#2 889999537#0 889999537#1 89478571#1 70056689#0 70056689#1 70056689#2 563505739#0 563505739#1 70200195#20 -75413339#4 -75259405#6 72644726#1"/>
            <route cost="735.84" probability="0.50439839" edges="72644726#1 -75259400#5 -75259406#1 -75259406#0 70200195#17 70200195#18 70200195#19 70200195#20 70200195#21 70200195#22 70200195#23 89478571#3 89478571#4 89478571#5 89478571#6 89478571#7 269853395#0 269853395#1 269853395#2 693637326#1 890559266#0 890559266#1 890559266#2 75679292#4 75679292#5 75679292#6 75679292#1 -183876531#7 -183876531#6 -183876531#4 -183876531#3 -183876531#2 -183876531#1 -183876531#0 447326319#0 447326319#1 447326319#2 -447326319#2 -447326319#1 -447326319#0 183876531#0 183876531#1 183876531#2 183876531#3 183876531#4 183876531#6 183876531#7 75679292#2 890559265#0 890559265#1 890559265#2 890559265#3 75679284#0 75679284#1 693637327#1 693637327#2 889999537#0 889999537#1 89478571#1 70056689#0 70056689#1 70056689#2 563505739#0 563505739#1 70200195#20 70200195#21 70080981#0 70080981#1 -75259400#7 -75259400#6 -75259400#5 -75259400#4 -75259400#3 -75259400#2 -75259400#1 -75259400#0 -75259402#0 -691836138#1 -691836138#0 70200195#6 70200195#7 70200195#8 70200195#9 75259403 -691836138#1 -691836138#0 70200195#6 564511809#0 564511809#1 70056689#16 70056689#17 183658213#0 183658213#1 -77680543#4 -77680543#3 -77680543#2 -77680543#1 -77680543#0 77680543#0 77680543#1 77680543#2 77680543#3 77680543#4 70200195#3 70200195#4 70200195#5 70200195#6 70200195#7 70200195#8 70200195#9 70200195#10 70200195#11 70200195#12 70200195#13 70200195#14 70200195#15 70200195#16 70200195#17 70200195#18 70200195#19 70200195#20 70200195#21 70080981#0 -75259405#7 -75259405#6 72644726#1 -75259400#5 -75259406#1 -75259406#0 70200195#17 70200195#18 70200195#19 70200195#20 70200195#21 70200195#22 70200195#23 89478571#3 89478571#4 89478571#5 89478571#6 89478571#7 269853395#0 269853395#1 269853395#2 693637326#1 890559266#0 890559266#1 890559266#2 75679292#4 75679292#5 75679292#6 75679292#1 -183876531#7 -183876531#6 -183876531#4 -183876531#3 -183876531#2 -183876531#1 -183876531#0 447326319#0 447326319#1 447326319#2 -447326319#2 -447326319#1 -447326319#0 183876531#0 183876531#1 183876531#2 183876531#3 183876531#4 183876531#6 183876531#7 75679292#2 890559265#0 890559265#1 890559265#2 890559265#3 75679284#0 75679284#1 693637327#1 693637327#2 889999537#0 889999537#1 89478571#1 70056689#0 70056689#1 70056689#2 563505739#0 563505739#1 70200195#20 -75413339#4 -75259405#6 72644726#1"/>
        </routeDistribution>
        <stop parkingArea="pa-183876531#3" duration="10.00"/>
        <stop parkingArea="pa70080981#0" duration="40.00"/>
        <stop parkingArea="pa70200195#9" duration="40.00"/>
        <stop parkingArea="pa-77680543#3" duration="10.00"/>
        <stop parkingArea="pa70080981#0" duration="10.00"/>
        <stop parkingArea="pa72644726#1" duration="10.00"/>
        <stop parkingArea="pa-183876531#3" duration="10.00"/>
    </vehicle>
    <vehicle id="veh2" type="v_agg4" depart="0.00">
        <routeDistribution last="1">
            <route cost="676.73" probability="0.49429237" edges="72644726#1 75259400#6 75259400#7 -70080981#1 -70080981#0 70200195#22 70200195#23 89478571#3 89478571#4 89478571#5 89478571#6 89478571#7 269853395#0 269853395#1 269853395#2 693637326#1 890559266#0 890559266#1 890559266#2 75679292#4 75679292#5 75679292#6 75679292#1 -183876531#7 -183876531#6 -183876531#4 -183876531#3 -183876531#2 -183876531#1 -183876531#0 447326319#0 447326319#1 447326319#2 447326319#3 447326319#4 447326321#0 447326321#1 -563505767#1 -563505769#20 -563505769#19 -563505769#18 -563505769#16 -563505769#15 -563505769#13 -563505769#10 -563505769#9 -563505769#8 -563505769#6 -563505769#5 -563505769#4 -563505769#3 -563505769#2 -563505769#1 75701372#0 75701372#1 75701372#3 -75679328#1 72508815#19 72508816#1 72508816#2 72508816#4 72508816#5 72508816#6 563505768#1 563505768#2 72508573#13 693637397#0 693637397#1 89478572#9 889999539 89478572#0 89478572#1 89478572#2 89478572#3 89478572#4 89478572#5 72644725#0 72644725#1 72644725#2 -75413336#2 -75413336#1 -75413336#0 90743683#1 75413330#0 75413331#1 147419849#6 147419849#7 147419849#8 147419849#9 89478572#5 72644725#0 72644725#1 72644725#2 72644725#3 72644725#4 72644725#5 72508821#0 -72508571#2 -72508571#1 -72508571#0 147419849#9 89478572#5 89478572#6 89478572#7 89478572#8 89478572#9 889999539 77709899#0 77709899#1 77709899#2 77709899#3 77709899#4 89478571#5 89478571#6 89478571#7 269853395#0 269853395#1 269853395#2 693637326#1 890559266#0 890559266#1 890559266#2 75679292#4 75679292#5 75679292#6 75679292#1 -183876531#7 -183876531#6 -183876531#4 -183876531#3 -183876531#2 -183876531#1 -183876531#0 447326319#0 447326319#1 447326319#2 -447326319#2 -447326319#1 -447326319#0 183876531#0 183876531#1 183876531#2 183876531#3 183876531#4 183876531#6 183876531#7 75679292#2 890559265#0 890559265#1 890559265#2 890559265#3 75679284#0 75679284#1 693637327#1 693637327#2 889999537#0 889999537#1 89478571#1 70056689#0 70056689#1 70056689#2 563505739#0 563505739#1 70200195#20 -75413339#4 -75259405#6 72644726#1"/>
            <route cost="646.53" probability="0.50570763" edges="72644726#1 -75259400#5 -75259406#1 -75259406#0 70200195#17 70200195#18 70200195#19 70200195#20 70200195#21 70200195#22 70200195#23 89478571#3 89478571#4 89478571#5 89478571#6 89478571#7 269853395#0 269853395#1 269853395#2 693637326#1 890559266#0 890559266#1 890559266#2 75679292#4 75679292#5 75679292#6 75679292#1 -183876531#7 -183876531#6 -183876531#4 -183876531#3 -183876531#2 -183876531#1 -183876531#0 447326319#0 447326319#1 447326319#2 447326319#3 447326319#4 447326321#0 447326321#1 -563505767#1 -563505769#20 -563505769#19 -563505769#18 -563505769#16 -563505769#15 -563505769#13 -563505769#10 -563505769#9 -563505769#8 -563505769#6 -563505769#5 -563505769#4 -563505769#3 -563505769#2 -563505769#1 75701372#0 75701372#1 75701372#3 -75679328#1 72508815#19 72508816#1 72508816#2 72508816#4 72508816#5 72508816#6 563505768#1 563505768#2 72508573#13 693637397#0 693637397#1 89478572#9 889999539 89478572#0 89478572#1 89478572#2 89478572#3 89478572#4 89478572#5 72644725#0 72644725#1 72644725#2 -75413336#2 72508571#1 72508571#2 72508821#1 72508821#2 72508821#3 75413331#0 75413331#1 147419849#6 147419849#7 -75413329#2 -75413329#1 -75413343#1 -75413343#0 72644725#5 447326043 147379116#0 147379116#2 147379116#3 77709894 77881557#7 77881557#8 77881557#9 75413340#0 75413340#1 447326496#0 447326496#1 447326496#2 447326496#3 447326496#4 447326496#5 89478572#7 89478572#8 89478572#9 889999539 77709899#0 77709899#1 77709899#2 77709899#3 77709899#4 89478571#5 89478571#6 89478571#7 269853395#0 269853395#1 269853395#2 693637326#1 890559266#0 890559266#1 890559266#2 75679292#4 75679292#5 75679292#6 75679292#1 -183876531#7 -183876531#6 -183876531#4 -183876531#3 -183876531#2 -183876531#1 -183876531#0 447326319#0 447326319#1 447326319#2 -447326319#2 -447326319#1 -447326319#0 183876531#0 183876531#1 183876531#2 183876531#3 183876531#4 183876531#6 183876531#7 75679292#2 890559265#0 890559265#1 890559265#2 890559265#3 75679284#0 75679284#1 693637327#1 693637327#2 889999537#0 889999537#1 89478571#1 70056689#0 70056689#1 70056689#2 563505739#0 563505739#1 70200195#20 -75413339#4 -75259405#6 72644726#1"/>
        </routeDistribution>
        <stop parkingArea="pa-183876531#3" duration="10.00"/>
        <stop parkingArea="pa-75679328#1" duration="40.00"/>
        <stop parkingArea="pa75413331#1" duration="50.00"/>
        <stop parkingArea="pa72644725#5" duration="10.00"/>
        <stop parkingArea="pa-183876531#3" duration="20.00"/>
    </vehicle>
    <vType id="v_agg0" minGap="0.20" maxSpeed="117.92" probability="0.06" speedFactor="2.04" lcStrategic="6.67" lcCooperative="0.09" lcSpeedGain="9.09" lcKeepRight="5.45" lcPushy="0.63" lcAssertive="2.79" lcImpatience="0.74" lcTimeToImpatience="7.69" lcAccelLat="1.33" lcSpeedGainLookahead="3.23" lcOvertakeRight="0.61" lcLaneDiscipline="2.15" lcSigma="0.79" lcOvertakeDeltaSpeedFactor="0.9" accel="3.78" decel="2.96" sigma="0.65" startupDelay="0.11" tau="1.41">
        <param key="device.rerouting.adaptation-interval" value="10"/>
        <param key="device.rerouting.adaptation-steps" value="18"/>
        <param key="device.rerouting.probability" value="1.0"/>
    </vType>
    <vehicle id="veh3" type="v_agg0" depart="0.00">
        <routeDistribution last="0">
            <route cost="557.22" probability="0.49354665" edges="72644726#1 75259400#6 75259400#7 -70080981#1 -70080981#0 70200195#22 70200195#23 89478571#3 89478571#4 89478571#5 89478571#6 89478571#7 269853395#0 269853395#1 269853395#2 693637326#1 890559266#0 890559266#1 890559266#2 75679292#4 75679292#5 75679292#6 -447326048#6 -447326048#5 -447326048#2 -447326048#1 447326049#1 447326049#2 447326049#3 447326049#4 447326049#5 447326049#6 447326049#7 447326049#8 447326049#9 447326049#10 447326049#11 72508815#7 72508815#8 72508815#10 72508815#11 72508815#12 72508815#13 72508815#14 72508815#15 72508815#16 72508815#17 72508815#18 72508815#19 889992192 72508815#0 72508815#1 72508815#2 72508815#3 72508815#4 72508815#5 72508815#6 72508815#7 72508815#8 75679316#1 75679316#2 75679316#3 75679292#6 75679292#1 -183876531#7 -183876531#6 -183876531#4 -183876531#3 -183876531#2 -183876531#1 -183876531#0 447326319#0 447326319#1 447326319#2 -447326319#2 -447326319#1 -447326319#0 183876531#0 183876531#1 183876531#2 183876531#3 183876531#4 183876531#6 183876531#7 75679292#2 890559265#0 890559265#1 890559265#2 890559265#3 75679284#0 75679284#1 693637327#1 693637327#2 889999537#0 889999537#1 89478571#1 70056689#0 -147379106#2 -147379106#1 -147379106#0 -72508572#2 -72508572#1 -72508572#0 890681699#1 890593765 689691698#11 689691698#12 689691698#13 689691698#14 -179051712#4 -179051712#3 -179051712#2 -179051712#1 -179051712#0 890556455#1 89478571#1 70056689#0 70056689#1 70056689#2 563505739#0 563505739#1 70200195#20 -75413339#4 -75259405#6 72644726#1 -75259400#5 -75259406#1 -75259406#0 70200195#17 70200195#18 70200195#19 70200195#20 70200195#21 70080981#0 -75259405#7 -75259405#6 72644726#1"/>
            <route cost="529.20" probability="0.50645335" edges="72644726#1 -75259400#5 -75259406#1 -75259406#0 70200195#17 70200195#18 70200195#19 70200195#20 70200195#21 70200195#22 70200195#23 89478571#3 89478571#4 89478571#5 89478571#6 89478571#7 269853395#0 269853395#1 269853395#2 693637326#1 890559266#0 890559266#1 890559266#2 75679292#4 75679292#5 75679292#6 -447326048#6 -447326048#5 -447326048#2 -447326048#1 447326049#1 447326049#2 447326049#3 447326049#4 447326049#5 447326049#6 447326049#7 447326049#8 447326049#9 447326049#10 447326049#11 72508815#7 72508815#8 72508815#10 72508815#11 72508815#12 72508815#13 72508815#14 72508815#15 72508815#16 72508815#17 72508815#18 72508815#19 889992192 72508815#0 72508815#1 72508815#2 72508815#3 72508815#4 72508815#5 72508815#6 72508815#7 72508815#8 75679316#1 75679316#2 75679316#3 75679292#6 75679292#1 -183876531#7 -183876531#6 -183876531#4 -183876531#3 -183876531#2 -183876531#1 -183876531#0 447326319#0 447326319#1 447326319#2 -447326319#2 -447326319#1 -447326319#0 183876531#0 183876531#1 183876531#2 183876531#3 183876531#4 183876531#6 183876531#7 75679292#2 890559265#0 890559265#1 890559265#2 890559265#3 75679284#0 75679284#1 693637327#1 693637327#2 889999537#0 889999537#1 89478571#1 70056689#0 -147379106#2 -147379106#1 -147379106#0 -72508572#2 -72508572#1 -72508572#0 72508572#0 72508572#1 72508572#2 147379106#0 -70200199#6 -72644727#1 -72644727#0 70056689#2 563505739#0 563505739#1 70200195#20 -75413339#4 -75259405#6 72644726#1 -75259400#5 -75259406#1 -75259406#0 70200195#17 70200195#18 70200195#19 70200195#20 70200195#21 70080981#0 -75259405#7 -75259405#6 72644726#1"/>
        </routeDistribution>
        <stop parkingArea="pa447326049#4" duration="10.00"/>
        <stop parkingArea="pa72508815#16" duration="40.00"/>
        <stop parkingArea="pa-183876531#3" duration="20.00"/>
        <stop parkingArea="pa-72508572#0" duration="50.00"/>
        <stop parkingArea="pa72644726#1" duration="10.00"/>
        <stop parkingArea="pa70080981#0" duration="10.00"/>
    </vehicle>
    <vType id="v_norm2" minGap="1.48" maxSpeed="89.55" probability="0.18" speedFactor="1.09" lcStrategic="2.17" lcCooperative="0.66" lcSpeedGain="1.8" lcKeepRight="0.8" lcPushy="0.04" lcAssertive="1.34" lcImpatience="0.15" lcTimeToImpatience="17.69" lcAccelLat="0.61" lcSpeedGainLookahead="1.43" lcOvertakeRight="0.1" lcLaneDiscipline="0.7" lcSigma="0.14" lcOvertakeDeltaSpeedFactor="0.63" accel="1.77" decel="1.42" sigma="0.22" startupDelay="0.71" tau="1.71">
        <param key="device.rerouting.adaptation-interval" value="10"/>
        <param key="device.rerouting.adaptation-steps" value="18"/>
        <param key="device.rerouting.probability" value="1.0"/>
    </vType>
    <vehicle id="veh4" type="v_norm2" depart="0.00">
        <routeDistribution last="0">
            <route cost="915.79" probability="0.49973515" edges="72644726#1 75259400#6 75259400#7 -70080981#1 -70080981#0 70200195#22 70200195#23 89478571#3 89478571#4 89478571#5 89478571#6 89478571#7 269853395#0 269853395#1 269853395#2 693637326#1 890559266#0 890559266#1 890559266#2 75679292#4 75679292#5 75679292#6 75679292#1 -183876531#7 -183876531#6 -183876531#4 -183876531#3 -183876531#2 -183876531#1 -183876531#0 447326319#0 447326319#1 447326319#2 -447326319#2 -447326319#1 -447326319#0 183876531#0 183876531#1 183876531#2 183876531#3 183876531#4 183876531#6 183876531#7 75679292#2 890559265#0 890559265#1 890559265#2 890559265#3 75679284#0 75679284#1 693637327#1 693637327#2 889999537#0 889999537#1 89478571#1 70056689#0 70056689#1 70056689#2 563505739#0 563505739#1 70200195#20 70200195#21 70080981#0 -70080981#0 70200195#22 70200195#23 89478571#3 89478571#4 89478571#5 89478571#6 89478571#7 269853395#0 269853395#1 269853395#2 693637326#1 890559266#0 890559266#1 890559266#2 75679292#4 75679292#5 75679292#6 75679292#1 -183876531#7 -183876531#6 -183876531#4 -183876531#3 -183876531#2 -183876531#1 -183876531#0 447326319#0 447326319#1 447326319#2 -447326319#2 -447326319#1 -447326319#0 183876531#0 183876531#1 183876531#2 183876531#3 183876531#4 183876531#6 183876531#7 75679292#2 890559265#0 890559265#1 890559265#2 890559265#3 75679284#0 75679284#1 693637327#1 693637327#2 889999537#0 889999537#1 89478571#1 70056689#0 70056689#1 70056689#2 563505739#0 563505739#1 70200195#20 70200195#21 70080981#0 -70080981#0 70200195#22 70200195#23 89478571#3 89478571#4 89478571#5 89478571#6 89478571#7 269853395#0 269853395#1 269853395#2 693637326#1 890559266#0 890559266#1 890559266#2 75679292#4 75679292#5 75679292#6 75679292#1 -183876531#7 -183876531#6 -183876531#4 -183876531#3 -183876531#2 -183876531#1 -183876531#0 447326319#0 447326319#1 447326319#2 -447326319#2 -447326319#1 -447326319#0 183876531#0 183876531#1 183876531#2 183876531#3 183876531#4 183876531#6 183876531#7 75679292#2 890559265#0 890559265#1 890559265#2 890559265#3 75679284#0 75679284#1 693637327#1 693637327#2 889999537#0 889999537#1 89478571#1 70056689#0 70056689#1 70056689#2 563505739#0 563505739#1 70200195#20 70200195#21 70080981#0 70080981#1 70080981#2 70080981#3 89478572#2 89478572#3 89478572#4 89478572#5 72644725#0 72644725#1 72644725#2 -75413336#2 -75413336#1 75413329#2 147419849#8 147419849#9 89478572#5 89478572#6 89478572#7 89478572#8 89478572#9 889999539 89478572#0 89478572#1 -70080981#3 -70080981#2 -70080981#1 -75259405#7 -75259405#6 72644726#1"/>
            <route cost="913.86" probability="0.50026485" edges="72644726#1 75259400#6 75413339#3 75413339#4 70200195#21 70200195#22 70200195#23 89478571#3 89478571#4 89478571#5 89478571#6 89478571#7 269853395#0 269853395#1 269853395#2 693637326#1 890559266#0 890559266#1 890559266#2 75679292#4 75679292#5 75679292#6 75679292#1 -183876531#7 -183876531#6 -183876531#4 -183876531#3 -183876531#2 -183876531#1 -183876531#0 447326319#0 447326319#1 447326319#2 -447326319#2 -447326319#1 -447326319#0 183876531#0 183876531#1 183876531#2 183876531#3 183876531#4 183876531#6 183876531#7 75679292#2 890559265#0 890559265#1 890559265#2 890559265#3 75679284#0 75679284#1 693637327#1 693637327#2 889999537#0 889999537#1 89478571#1 70056689#0 70056689#1 70056689#2 563505739#0 563505739#1 70200195#20 70200195#21 70080981#0 -70080981#0 70200195#22 70200195#23 89478571#3 89478571#4 89478571#5 89478571#6 89478571#7 269853395#0 269853395#1 269853395#2 693637326#1 890559266#0 890559266#1 890559266#2 75679292#4 75679292#5 75679292#6 75679292#1 -183876531#7 -183876531#6 -183876531#4 -183876531#3 -183876531#2 -183876531#1 -183876531#0 447326319#0 447326319#1 447326319#2 -447326319#2 -447326319#1 -447326319#0 183876531#0 183876531#1 183876531#2 183876531#3 183876531#4 183876531#6 183876531#7 75679292#2 890559265#0 890559265#1 890559265#2 890559265#3 75679284#0 75679284#1 693637327#1 693637327#2 889999537#0 889999537#1 89478571#1 70056689#0 70056689#1 70056689#2 563505739#0 563505739#1 70200195#20 70200195#21 70080981#0 -70080981#0 70200195#22 70200195#23 89478571#3 89478571#4 89478571#5 89478571#6 89478571#7 269853395#0 269853395#1 269853395#2 693637326#1 890559266#0 890559266#1 890559266#2 75679292#4 75679292#5 75679292#6 75679292#1 -183876531#7 -183876531#6 -183876531#4 -183876531#3 -183876531#2 -183876531#1 -183876531#0 447326319#0 447326319#1 447326319#2 -447326319#2 -447326319#1 -447326319#0 183876531#0 183876531#1 183876531#2 183876531#3 183876531#4 183876531#6 183876531#7 75679292#2 890559265#0 890559265#1 890559265#2 890559265#3 75679284#0 75679284#1 693637327#1 693637327#2 889999537#0 889999537#1 89478571#1 70056689#0 70056689#1 70056689#2 563505739#0 563505739#1 70200195#20 70200195#21 70080981#0 70080981#1 70080981#2 70080981#3 89478572#2 89478572#3 89478572#4 89478572#5 72644725#0 72644725#1 72644725#2 -75413336#2 -75413336#1 75413329#2 147419849#8 147419849#9 89478572#5 89478572#6 89478572#7 89478572#8 89478572#9 889999539 89478572#0 89478572#1 -70080981#3 -70080981#2 -70080981#1 -75259405#7 -75259405#6 72644726#1"/>
        </routeDistribution>
        <stop parkingArea="pa-183876531#3" duration="10.00"/>
        <stop parkingArea="pa70080981#0" duration="40.00"/>
        <stop parkingArea="pa-183876531#3" duration="10.00"/>
        <stop parkingArea="pa70080981#0" duration="10.00"/>
        <stop parkingArea="pa-183876531#3" duration="10.00"/>
        <stop parkingArea="pa70080981#0" duration="30.00"/>
        <stop parkingArea="pa75413329#2" duration="10.00"/>
    </vehicle>
    <vType id="v_norm3" minGap="1.59" maxSpeed="96.69" probability="0.28" speedFactor="1.36" lcStrategic="1.77" lcCooperative="0.54" lcSpeedGain="2.78" lcKeepRight="0.69" lcPushy="0.11" lcAssertive="1.25" lcImpatience="0.07" lcTimeToImpatience="14.64" lcAccelLat="0.84" lcSpeedGainLookahead="1.27" lcOvertakeRight="0.17" lcLaneDiscipline="0.89" lcSigma="0.12" lcOvertakeDeltaSpeedFactor="-0.01" accel="1.51" decel="1.76" sigma="0.26" startupDelay="0.68" tau="1.67">
        <param key="device.rerouting.adaptation-interval" value="10"/>
        <param key="device.rerouting.adaptation-steps" value="18"/>
        <param key="device.rerouting.probability" value="1.0"/>
    </vType>
    <vehicle id="veh5" type="v_norm3" depart="0.00">
        <routeDistribution last="1">
            <route cost="1059.89" probability="0.49509055" edges="72644726#1 75259400#6 75259400#7 -70080981#1 -70080981#0 70200195#22 70200195#23 89478571#3 89478571#4 89478571#5 89478571#6 89478571#7 269853395#0 269853395#1 269853395#2 693637326#1 890559266#0 890559266#1 890559266#2 75679292#4 75679292#5 75679292#6 75679292#1 -183876531#7 -183876531#6 -183876531#4 -183876531#3 -183876531#2 -183876531#1 -183876531#0 447326319#0 447326319#1 447326319#2 447326319#3 447326319#4 447326321#0 447326321#1 237036477#0 237036477#1 237036477#2 95011158 75679256#10 906049246 IC 75701374#1 75701374#2 75701374#4 75701374#5 75701374#6 75701374#7 75701374#8 75701374#9 329703620#7 1013410330 1013410329 72508573#0 72508573#1 75679333#0 75679333#1 75679333#2 563505769#8 563505769#9 563505769#10 563505769#13 563505769#15 563505769#16 563505769#18 563505769#19 563505769#20 563505766#1 447326048#1 447326048#2 447326050#1 -183876531#4 -183876531#3 -183876531#2 -183876531#1 -183876531#0 447326319#0 447326319#1 447326319#2 -447326319#2 -447326319#1 -447326319#0 183876531#0 183876531#1 183876531#2 183876531#3 183876531#4 183876531#6 183876531#7 75679292#2 890559265#0 890559265#1 890559265#2 890559265#3 75679284#0 75679284#1 693637327#1 693637327#2 889999537#0 890556454 179051712#0 179051712#1 179051712#2 179051712#3 179051712#4 77712876#0 77712876#1 77712876#2 77712876#3 77712876#4 77712876#5 70080980#1 70080980#2 70080980#3 70080980#4 70080980#5 70080980#6 70080979#4 70080979#5 70080979#6 70080979#7 77790788#0 77790788#1 77790788#2 -88141324#1 -85631065#5 -85631065#4 -85631065#3 -147412866#1 85631072#3 85631072#4 85631072#5 69830501#2 69830501#3 69830501#4 69830501#5 69830501#6 70080979#10 70080979#11 70080979#12 70080979#1 70080979#2 77781343#0 77781343#1 77781343#2 77781343#3 77781343#4 689691698#7 689691698#8 689691698#9 689691698#10 689691698#11 689691698#12 689691698#13 689691698#14 -179051712#4 -179051712#3 -179051712#2 -179051712#1 -179051712#0 890556455#1 89478571#1 70056689#0 70056689#1 70056689#2 563505739#0 563505739#1 70200195#20 -75413339#4 -75259405#6 72644726#1 72644726#2 -72644721#1 -75413339#0 75416306#1 75416306#2 -72644726#3 -72644726#2 -72644726#1 -72644726#0 70200195#18 70200195#19 70200195#20 70200195#21 70200195#22 70200195#23 89478571#3 89478571#4 89478571#5 89478571#6 89478571#7 269853395#0 269853395#1 269853395#2 693637326#1 890559266#0 890559266#1 890559266#2 75679292#4 75679292#5 75679292#6 75679292#1 -183876531#7 -183876531#6 -183876531#4 -183876531#3 -183876531#2 -183876531#1 -183876531#0 447326319#0 447326319#1 447326319#2 -447326319#2 -447326319#1 -447326319#0 183876531#0 183876531#1 183876531#2 183876531#3 183876531#4 183876531#6 183876531#7 75679292#2 890559265#0 890559265#1 890559265#2 890559265#3 75679284#0 75679284#1 693637327#1 693637327#2 889999537#0 889999537#1 89478571#1 70056689#0 70056689#1 70056689#2 563505739#0 563505739#1 70200195#20 -75413339#4 -75259405#6 72644726#1"/>
            <route cost="1019.08" probability="0.50490945" edges="72644726#1 75259400#6 75413339#3 75413339#4 70200195#21 70200195#22 70200195#23 89478571#3 89478571#4 89478571#5 89478571#6 89478571#7 269853395#0 269853395#1 269853395#2 693637326#1 890559266#0 890559266#1 890559266#2 75679292#4 75679292#5 75679292#6 75679292#1 -183876531#7 -183876531#6 -183876531#4 -183876531#3 -183876531#2 -183876531#1 -183876531#0 447326319#0 447326319#1 447326319#2 447326319#3 447326319#4 447326321#0 447326321#1 237036477#0 237036477#1 237036477#2 95011158 75679256#10 906049246 IC 75701374#1 75701374#2 75701374#4 278132384#0 278132384#1 329703621#5 329703621#6 329703621#7 329703621#8 447326322#2 664980266 535558320#4 535558320#5 535558320#6 535558320#7 535558320#8 535558320#9 535558320#10 447326318 72508818 -447326319#4 -447326319#3 -447326319#2 -447326319#1 -447326319#0 183876531#0 183876531#1 183876531#2 183876531#3 183876531#4 -183876531#4 -183876531#3 -183876531#2 -183876531#1 -183876531#0 447326319#0 447326319#1 447326319#2 -447326319#2 -447326319#1 -447326319#0 183876531#0 183876531#1 183876531#2 183876531#3 183876531#4 183876531#6 183876531#7 75679292#2 890559265#0 890559265#1 890559265#2 890559265#3 75679284#0 75679284#1 693637327#1 693637327#2 889999537#0 890556454 179051712#0 179051712#1 179051712#2 179051712#3 179051712#4 77712876#0 77712876#1 77712876#2 77712876#3 77712876#4 77712876#5 70080980#1 70080980#2 70080980#3 70080980#4 70080980#5 70080980#6 70080979#4 85631070 563505765#0 563505765#1 563505765#2 563505765#3 563505765#4 563505765#5 -147412866#2 -147412866#1 85631072#3 85631072#4 85631072#5 85631072#8 85631072#9 85631072#10 85631072#11 85631072#12 77783446#1 70080979#12 70080979#1 70080979#2 77781343#0 77781343#1 77781343#2 77781343#3 77781347#1 77781347#2 563505764#0 563505764#1 890559138 -890559137#1 -890559137#0 -179051712#4 -179051712#3 -179051712#2 -179051712#1 -179051712#0 890556455#1 89478571#1 70056689#0 70056689#1 70056689#2 563505739#0 563505739#1 70200195#20 -75413339#4 -75259405#6 72644726#1 72644726#2 -72644721#1 -75413339#0 75416306#1 75416306#2 -72644726#3 -72644726#2 -72644726#1 -72644726#0 70200195#18 70200195#19 70200195#20 70200195#21 70200195#22 70200195#23 89478571#3 89478571#4 89478571#5 89478571#6 89478571#7 269853395#0 269853395#1 269853395#2 693637326#1 890559266#0 890559266#1 890559266#2 75679292#4 75679292#5 75679292#6 75679292#1 -183876531#7 -183876531#6 -183876531#4 -183876531#3 -183876531#2 -183876531#1 -183876531#0 447326319#0 447326319#1 447326319#2 -447326319#2 -447326319#1 -447326319#0 183876531#0 183876531#1 183876531#2 183876531#3 183876531#4 183876531#6 183876531#7 75679292#2 890559265#0 890559265#1 890559265#2 890559265#3 75679284#0 75679284#1 693637327#1 693637327#2 889999537#0 889999537#1 89478571#1 70056689#0 70056689#1 70056689#2 563505739#0 563505739#1 70200195#20 -75413339#4 -75259405#6 72644726#1"/>
        </routeDistribution>
        <stop parkingArea="pa-183876531#3" duration="10.00"/>
        <stop parkingArea="pa75701374#4" duration="40.00"/>
        <stop parkingArea="pa-183876531#3" duration="20.00"/>
        <stop parkingArea="pa-147412866#1" duration="20.00"/>
        <stop parkingArea="pa72644726#1" duration="10.00"/>
        <stop parkingArea="pa75416306#1" duration="10.00"/>
        <stop parkingArea="pa-183876531#3" duration="10.00"/>
    </vehicle>


 <!-- END - LLM Generated trips -->

<!-- BEGIN - Random Trips -->

    <vType id="passenger" vClass="passenger"/>
    <vehicle id="0" type="passenger" depart="0.00">
        <route edges="70200198#5 -70200198#5 -70200198#4 -70200198#3 -70200198#2 -70200198#0 147379108#4 890586228 70056689#16 70056689#17 70056689#18 70056689#19 70056689#20 183876535#7 890063337#0 539685790#1 563505747#2 563505747#3 890020478#1 890076350 563505743#0 563505743#1 563505743#2 -147419826#2 -147419826#1 -147419826#0"/>
    </vehicle>
    <vehicle id="1" type="passenger" depart="1.00">
        <route edges="-88141324#0 -563505765#2 -563505765#1 -563505765#0 539414318 70080979#6 70080979#7 70080979#8 70080979#9 70080979#10 70080979#11 70080979#12 70080979#1 70080979#2 77781343#0 77781343#1 77781343#2 77781343#3 77781343#4 689691698#7 70056694#0 70056694#1 70056694#2 70056694#3 70056694#4 -70200192#3 -70200192#2 -70200192#1 -70200198#2 -70200198#0 147379108#4 890586228 70056689#16 70056689#17 70056689#18 70056689#19 70056689#20 183876535#7 890063337#0 539685790#1 563505747#2 563505747#3 890020478#1 890076350 563505743#0 563505743#1 563505743#2 -147419826#2 -147419826#1 -77948763 -77948759#0"/>
    </vehicle>
    <vehicle id="2" type="passenger" depart="2.00">