<?xml version="1.0" encoding="UTF-8"?>

<!-- generated on 2024-09-12 18:23:01 by Eclipse SUMO polyconvert Version 1.20.0
<configuration xmlns:xsi="http://www.w3.org/2001/XMLSchema-instance" xsi:noNamespaceSchemaLocation="http://sumo.dlr.de/xsd/polyconvertConfiguration.xsd">

    <input>
        <net-file value="osm.net.xml.gz"/>
        <osm-files value="osm_bbox.osm.xml.gz"/>
        <osm.keep-full-type value="true"/>
        <osm.merge-relations value="1"/>
        <type-file value="${SUMO_HOME}/data/typemap/osmPolyconvert.typ.xml"/>
    </input>

    <output>
        <output-file value="osm.poly.xml.gz"/>
    </output>

    <report>
        <verbose value="true"/>
    </report>

</configuration>
-->

<additional xmlns:xsi="http://www.w3.org/2001/XMLSchema-instance" xsi:noNamespaceSchemaLocation="http://sumo.dlr.de/xsd/additional_file.xsd">
    <location netOffset="-287169.33,2525724.49" convBoundary="-5.44,-1.11,1854.03,1534.82" origBoundary="-47.073673,-22.825790,-47.055651,-22.812090" projParameter="+proj=utm +zone=23 +ellps=WGS84 +datum=WGS84 +units=m +no_defs"/>

    <poly id="104309172" type="amenity.college" color="237,199,199" fill="1" layer="-2.00" shape="589.562522,976.635063 673.970265,976.664726 673.974264,994.720225 589.566421,994.690571 589.562522,976.635063"/>
    <poly id="1044342012" type="landuse.farmland" color="194,194,130" fill="0" layer="-3.00" shape="1760.259512,583.237093 1744.665180,324.263655 1593.797343,321.939756 1593.225002,297.440738 1589.770277,283.779059 1550.619327,277.794458 1508.750283,270.863540 1485.989684,266.912876 1467.725557,263.767050 1467.728983,260.576946 1558.733258,25.054955"/>
    <poly id="1044342017" type="natural.heath" color="140,196,107" fill="0" layer="-4.00" shape="1760.259512,583.237093 1744.665180,324.263655 1593.797343,321.939756 1604.526142,337.508364 1628.800661,363.246053 1650.394931,385.324197 1675.851111,391.117690 1701.978522,415.064448 1700.786787,435.008413 1673.199910,450.951387 1635.746723,434.367958 1578.229675,440.611165 1549.235140,435.986641 1523.563556,429.436705 1487.986033,411.638431 1467.829256,410.925301 1467.789629,433.643497 1488.899695,592.780814 1491.766066,610.344456 1512.437200,609.536088 1527.849653,610.293756 1536.593308,615.067964 1559.875223,723.824352 1585.798101,881.832130 1613.625204,1069.042858 1630.183668,1112.872229 1632.925837,1118.736880 1648.102565,1151.193155 1731.336128,1253.262908 1814.114905,1104.811071 1794.746541,1045.191502 1767.112263,1051.198103 1736.298206,1021.559261 1723.125016,973.534721 1725.115739,925.710288 1749.566970,903.453969 1771.922869,903.355442 1800.415940,967.665793 1850.501354,931.842552"/>
    <poly id="1046240740" type="building.yes" color="255,230,230" fill="0" layer="-1.00" shape="1433.210027,1530.428561 1443.934823,1530.877172"/>
    <poly id="1046240745" type="building.yes" color="255,230,230" fill="0" layer="-1.00" shape="1570.823596,1534.152253 1585.566629,1524.798321"/>
    <poly id="1046240746" type="building.yes" color="255,230,230" fill="0" layer="-1.00" shape="1629.193191,1534.821473 1600.255573,1492.791385 1592.024019,1498.392372 1585.753334,1489.288412 1600.329493,1479.378301 1645.257549,1533.815712"/>
    <poly id="1046240747" type="building.yes" color="255,230,230" fill="1" layer="-1.00" shape="1647.279887,1491.840329 1638.207300,1503.267144 1623.630861,1491.821047 1626.202189,1488.578109 1619.426980,1483.255432 1621.318925,1480.867027 1602.628554,1466.195604 1597.883442,1472.155320 1577.649201,1456.266047 1586.930699,1444.587409 1587.357279,1444.925659 1591.423159,1439.809403 1604.536830,1450.105316 1604.191850,1450.543585 1618.260443,1461.583863 1614.602228,1466.185192 1647.279887,1491.840329"/>
    <poly id="1046240748" type="building.yes" color="255,230,230" fill="1" layer="-1.00" shape="1640.018640,1456.536835 1657.151321,1438.542930 1673.115423,1453.575083 1661.412324,1465.862498 1652.736009,1457.688750 1647.296165,1463.395111 1640.018640,1456.536835"/>
    <poly id="1046240749" type="building.yes" color="255,230,230" fill="1" layer="-1.00" shape="1580.838446,1375.515636 1569.807838,1388.177892 1560.340761,1380.015216 1571.371372,1367.352967 1580.838446,1375.515636"/>
    <poly id="1046240750" type="building.yes" color="255,230,230" fill="1" layer="-1.00" shape="1560.651387,1328.988293 1579.312578,1328.052042 1580.278541,1347.162066 1561.617480,1348.087246 1560.651387,1328.988293"/>
    <poly id="1046240751" type="building.yes" color="255,230,230" fill="1" layer="-1.00" shape="1538.684403,1392.496138 1550.896599,1384.945742 1557.998299,1396.309913 1545.786253,1403.849241 1538.684403,1392.496138"/>
    <poly id="1046240752" type="building.yes" color="255,230,230" fill="1" layer="-1.00" shape="1523.008015,1457.033179 1541.975711,1445.168336 1561.297310,1475.699672 1542.319328,1487.564397 1523.008015,1457.033179"/>
    <poly id="1046240753" type="building.yes" color="255,230,230" fill="1" layer="-1.00" shape="1506.580418,1445.793770 1514.639649,1459.187303 1495.234757,1470.735868 1487.165268,1457.342181 1506.580418,1445.793770"/>
    <poly id="1046240754" type="building.yes" color="255,230,230" fill="1" layer="-1.00" shape="1476.045918,1423.325092 1471.386813,1466.570813 1453.114809,1464.621303 1457.550330,1423.421692 1464.768948,1424.186949 1464.982162,1422.151772 1476.045918,1423.325092"/>
    <poly id="1046240755" type="building.yes" color="255,230,230" fill="1" layer="-1.00" shape="1452.947199,1394.889878 1450.586541,1418.373224 1433.266480,1416.647419 1434.900356,1400.365002 1438.992048,1400.765440 1439.718701,1393.575586 1452.947199,1394.889878"/>
    <poly id="1046240756" type="building.yes" color="255,230,230" fill="1" layer="-1.00" shape="1515.960306,1463.160163 1537.410074,1494.983960 1533.460870,1497.620606 1535.603737,1500.807385 1534.287489,1501.675193 1535.675771,1503.743766 1529.653576,1507.758286 1514.381109,1485.103636 1511.458207,1487.045660 1501.749616,1472.632215 1515.960306,1463.160163"/>
    <poly id="1046240757" type="building.yes" color="255,230,230" fill="1" layer="-1.00" shape="1523.556328,1506.842540 1515.862320,1512.185136 1501.845678,1492.261814 1509.539837,1486.908152 1523.556328,1506.842540"/>
    <poly id="1046240758" type="building.yes" color="255,230,230" fill="1" layer="-1.00" shape="1640.689349,1438.612697 1647.523308,1431.607609 1655.578877,1439.373948 1648.744920,1446.379040 1640.689349,1438.612697"/>
    <poly id="1046240759" type="building.yes" color="255,230,230" fill="1" layer="-1.00" shape="1635.661480,1435.385745 1623.827164,1434.977190 1624.149829,1425.821098 1635.983983,1426.240728 1635.661480,1435.385745"/>
    <poly id="1046240760" type="building.yes" color="255,230,230" fill="1" layer="-1.00" shape="1500.658846,1514.786755 1496.335619,1516.997257 1492.435562,1509.477064 1496.769054,1507.266707 1500.658846,1514.786755"/>
    <poly id="1046240761" type="building.yes" color="255,230,230" fill="1" layer="-1.00" shape="1435.041685,1481.549584 1434.366577,1495.353066 1426.393034,1494.964963 1427.078416,1481.161624 1435.041685,1481.549584"/>
    <poly id="1046240762" type="building.yes" color="255,230,230" fill="1" layer="-1.00" shape="1428.102253,1480.644209 1428.691525,1467.105375 1436.942723,1467.464119 1436.353613,1480.991878 1428.102253,1480.644209"/>
    <poly id="1046240763" type="building.yes" color="255,230,230" fill="1" layer="-1.00" shape="1471.469462,1395.823810 1459.116271,1394.333431 1461.132926,1377.845889 1473.486103,1379.336268 1471.469462,1395.823810"/>
    <poly id="1046240764" type="building.yes" color="255,230,230" fill="1" layer="-1.00" shape="1436.516223,1367.699596 1452.217312,1367.696986 1452.218979,1380.834214 1436.528143,1380.836968 1436.516223,1367.699596"/>
    <poly id="1046240765" type="building.yes" color="255,230,230" fill="1" layer="-1.00" shape="1547.590794,1414.364209 1534.508987,1424.627402 1526.556530,1414.624897 1539.638490,1404.350636 1547.590794,1414.364209"/>
    <poly id="1046240766" type="building.yes" color="255,230,230" fill="1" layer="-1.00" shape="1543.323528,1425.824708 1553.817562,1420.720509 1559.589456,1432.453837 1549.095416,1437.558041 1543.323528,1425.824708"/>
    <poly id="1046240767" type="building.yes" color="255,230,230" fill="1" layer="-1.00" shape="1551.032410,1409.095264 1565.941465,1399.610751 1572.756248,1410.195533 1557.857301,1419.691271 1551.032410,1409.095264"/>
    <poly id="1046240768" type="building.yes" color="255,230,230" fill="1" layer="-1.00" shape="1669.869172,1195.637783 1677.435513,1203.131462 1670.958289,1209.598757 1663.381680,1202.104931 1669.869172,1195.637783"/>
    <poly id="1046240769" type="building.yes" color="255,230,230" fill="1" layer="-1.00" shape="1193.759922,1180.923154 1194.625633,1166.723551 1206.701830,1167.445990 1205.846397,1181.645737 1193.759922,1180.923154"/>
    <poly id="1046240770" type="building.yes" color="255,230,230" fill="1" layer="-1.00" shape="675.110743,978.818542 675.137266,993.063883 585.644193,993.195645 585.625542,982.794113 591.684247,982.779256 591.676302,978.946515 675.110743,978.818542"/>
    <poly id="1046240771" type="building.university" color="255,230,230" fill="1" layer="-1.00" shape="549.910480,930.054988 543.729894,931.441664 544.433754,934.708151 550.694892,932.702293 553.044709,948.220804 539.158112,949.931556 537.165178,938.992828 535.849425,933.225453 533.978782,926.752456 530.800138,917.624819 528.467067,911.909655 523.492780,900.486086 517.395002,890.830169 510.681239,881.165621 523.129432,872.910416 529.815656,882.341957 525.108875,885.543735 526.190517,887.497356 531.487485,884.680460 539.842469,901.069552 545.899618,917.293532 549.910480,930.054988"/>
    <poly id="1046240772" type="building.university" color="255,230,230" fill="1" layer="-1.00" shape="479.105334,906.820620 479.623729,900.602624 482.035389,894.843154 486.127067,890.104148 491.491540,886.867286 497.601024,885.424252 503.857734,885.932826 509.646298,888.340078 514.415581,892.405672 517.925731,898.392098 519.175402,905.210863 518.011808,912.040132 514.559512,918.050877 509.249371,922.540206 499.995093,925.633969 495.742680,924.987319 489.183022,922.646799 483.823082,918.229536 480.560606,912.889036 479.105334,906.820620"/>
    <poly id="1046240773" type="building.university" color="255,230,230" fill="1" layer="-1.00" shape="514.860915,961.044823 508.496854,960.867062 502.499051,958.733806 497.459868,954.874891 493.857028,949.640397 492.062948,943.567238 492.243936,937.244822 494.381189,931.282120 497.843379,927.497989 499.995093,925.633969 509.249371,922.540206 518.073152,921.589340 524.385357,924.735000 529.242741,929.843057 532.048107,936.295916 532.463248,943.313453 530.438505,950.042045 526.221175,955.687614 520.975234,959.258459 514.860915,961.044823"/>
    <poly id="1046240774" type="building.yes" color="255,230,230" fill="1" layer="-1.00" shape="378.329383,991.797781 372.076927,994.645544 368.928290,987.777991 375.180589,984.941304 378.329383,991.797781"/>
    <poly id="1046240775" type="building.yes" color="255,230,230" fill="1" layer="-1.00" shape="816.365982,808.504087 827.673322,803.976704 835.683583,823.739257 824.376231,828.266647 816.365982,808.504087"/>
    <poly id="1046240776" type="building.yes" color="255,230,230" fill="1" layer="-1.00" shape="810.460756,784.340186 826.697173,768.051572 834.151829,775.411249 817.915569,791.688796 810.460756,784.340186"/>
    <poly id="104628654" type="building.yes" color="255,230,230" fill="0" layer="-1.00" shape="1269.276838,1517.153613 1254.793797,1490.200763 1267.198123,1483.616947 1274.715107,1497.590135 1288.847140,1490.088872 1262.052771,1440.245493 1221.135700,1461.994421 1218.828710,1463.213912 1221.501345,1468.169367 1194.137094,1482.708010 1215.006022,1521.524824"/>
    <poly id="1046701636" type="building.university" color="255,230,230" fill="1" layer="-1.00" shape="497.755834,1225.511568 497.278086,1240.558475 421.712311,1238.181697 422.180023,1223.123566 497.755834,1225.511568"/>
    <poly id="1046701637" type="building.yes" color="255,230,230" fill="1" layer="-1.00" shape="393.009335,1196.528834 387.831591,1234.793686 376.290721,1233.236249 379.062737,1212.760538 376.510496,1212.425691 378.297438,1199.224824 376.134871,1198.928669 376.684330,1194.893273 385.734688,1196.105654 385.803893,1195.563852 393.009335,1196.528834"/>
    <poly id="1046701638" type="building.yes" color="255,230,230" fill="1" layer="-1.00" shape="661.694571,1453.898676 651.644586,1455.862648 648.786843,1441.400458 651.041811,1440.966785 646.361698,1417.307370 640.132077,1418.516184 636.986809,1402.587806 633.279871,1403.311309 632.167501,1397.679722 637.985353,1396.542687 636.220871,1387.612118 648.114014,1385.286263 661.694571,1453.898676"/>
    <poly id="1046701639" type="building.yes" color="255,230,230" fill="1" layer="-1.00" shape="916.521305,1377.287859 929.772803,1405.608505 923.468047,1408.522230 922.211725,1405.835128 912.092938,1410.523232 895.770611,1375.624245 908.369687,1369.807747 912.697018,1379.062096 916.521305,1377.287859"/>
    <poly id="1046701641" type="building.yes" color="255,230,230" fill="1" layer="-1.00" shape="1280.832386,1494.861958 1297.496996,1496.468016 1277.496189,1529.364292 1280.832386,1494.861958"/>
    <poly id="1046701642" type="building.yes" color="255,230,230" fill="1" layer="-1.00" shape="256.970275,663.347261 267.711288,663.331758 267.745252,681.409884 257.004226,681.425389 256.970275,663.347261"/>
    <poly id="1046701643" type="building.yes" color="255,230,230" fill="1" layer="-1.00" shape="263.691305,714.938463 264.403323,702.243140 272.529540,702.700499 271.807262,715.395677 263.691305,714.938463"/>
    <poly id="1046701644" type="building.yes" color="255,230,230" fill="1" layer="-1.00" shape="261.556072,724.412574 269.536847,724.258658 269.846262,740.269248 261.865479,740.423165 261.556072,724.412574"/>
    <poly id="1046701645" type="building.yes" color="255,230,230" fill="1" layer="-1.00" shape="274.537253,725.015561 292.691492,725.779698 292.416618,732.200496 279.496098,731.664838 279.267239,737.000737 274.043621,736.783478 274.537253,725.015561"/>
    <poly id="1046701646" type="building.yes" color="255,230,230" fill="1" layer="-1.00" shape="278.468429,690.720947 285.632389,690.965418 285.137740,705.735185 277.983884,705.501934 278.468429,690.720947"/>
    <poly id="1046701647" type="building.yes" color="255,230,230" fill="1" layer="-1.00" shape="277.862223,719.302157 277.397950,707.011264 285.093118,706.720411 285.557241,719.022379 277.862223,719.302157"/>
    <poly id="1046701648" type="building.yes" color="255,230,230" fill="1" layer="-1.00" shape="292.710689,707.569397 292.859492,718.925397 286.810215,719.006719 286.651150,707.650574 292.710689,707.569397"/>
    <poly id="1046701649" type="building.yes" color="255,230,230" fill="1" layer="-1.00" shape="304.264533,695.723963 314.876934,696.094315 314.079634,718.536189 303.467373,718.154763 304.264533,695.723963"/>
    <poly id="1046701650" type="building.yes" color="255,230,230" fill="1" layer="-1.00" shape="317.103912,660.302563 302.364745,659.852186 302.591686,652.455940 317.330690,652.917392 317.103912,660.302563"/>
    <poly id="1046701651" type="building.yes" color="255,230,230" fill="1" layer="-1.00" shape="255.046793,754.362077 236.594181,754.369102 236.593227,744.920414 255.045827,744.913390 255.046793,754.362077"/>
    <poly id="1046701652" type="building.yes" color="255,230,230" fill="1" layer="-1.00" shape="236.479596,757.413668 255.177223,758.240853 254.727255,768.358912 236.029615,767.531727 236.479596,757.413668"/>
    <poly id="1046701653" type="building.yes" color="255,230,230" fill="1" layer="-1.00" shape="314.718713,754.246280 303.700754,754.235785 303.716894,739.171308 314.734843,739.181803 314.718713,754.246280"/>
    <poly id="1046701654" type="building.yes" color="255,230,230" fill="1" layer="-1.00" shape="378.213028,793.507117 393.629134,794.022281 393.365700,801.827860 377.949742,801.301622 378.213028,793.507117"/>
    <poly id="1047501162" type="building.yes" color="255,230,230" fill="1" layer="-1.00" shape="848.046125,119.096631 859.821932,125.818936 846.646891,148.652536 834.860804,141.930079 848.046125,119.096631"/>
    <poly id="1047501163" type="building.yes" color="255,230,230" fill="1" layer="-1.00" shape="843.152595,195.115799 855.043109,176.761474 867.387711,184.665882 855.308389,203.305576 849.080083,199.319354 849.268900,199.033995 843.152595,195.115799"/>
    <poly id="1054421020" type="natural.scrub" color="140,196,107" fill="0" layer="-4.00" shape="1739.217600,1340.636341 1746.201479,1407.671178 1766.952489,1432.916297"/>
    <poly id="1054421024" type="landuse.commercial" color="209,209,204" fill="1" layer="-3.00" shape="1381.311819,1363.218958 1327.332688,1377.641343"/>
    <poly id="1054421025" type="landuse.industrial" color="209,209,204" fill="1" layer="-3.00" shape="1381.311819,1363.218958 1434.870024,1354.672357 1381.311819,1363.218958"/>
    <poly id="1055470861" type="landuse.commercial" color="209,209,204" fill="1" layer="-3.00" shape="884.753426,1457.062959 1154.307862,1407.404909 888.829567,1494.571071 884.753426,1457.062959"/>
    <poly id="1055470862" type="landuse.meadow" color="194,194,130" fill="0" layer="-3.00" shape="1731.336128,1253.262908 1733.476746,1255.873630 1671.323053,1314.634888"/>
    <poly id="1059908341" type="landuse.retail" color="194,194,130" fill="1" layer="-3.00" shape="648.437127,112.370354 626.735526,92.947577 663.510758,49.298691 678.870874,31.757387 701.155351,42.548217 701.422385,55.744627 648.437127,112.370354"/>
    <poly id="1081222342" type="landuse.farmland" color="194,194,130" fill="1" layer="-3.00" shape="1739.217600,1340.636341"/>
    <poly id="1081222347" type="landuse.meadow" color="194,194,130" fill="1" layer="-3.00" shape="1731.336128,1253.262908"/>
    <poly id="1091064289" type="amenity.parking" color="184,184,179" fill="1" layer="-1.00" shape="1025.049533,400.223604 1049.178669,415.736251 1080.849373,366.986140 1056.730403,351.484758 1025.049533,400.223604"/>
    <poly id="109496243" type="building.university" color="255,230,230" fill="1" layer="-1.00" shape="647.361059,1002.566812 678.578490,1003.247465 677.575113,1049.258184 646.357588,1048.577537 647.361059,1002.566812"/>
    <poly id="109496245" type="building.university" color="255,230,230" fill="1" layer="-1.00" shape="580.219230,1004.418186 610.101203,1004.404584 610.112882,1021.906350 580.230875,1021.919954 580.219230,1004.418186"/>
    <poly id="109496247" type="building.university" color="255,230,230" fill="1" layer="-1.00" shape="962.263321,1027.242441 963.741712,1004.488918 985.142715,1005.873574 982.371210,1048.414588 973.414770,1047.835256 974.708083,1028.036690 962.263321,1027.242441"/>
    <poly id="109496249" type="building.university" color="255,230,230" fill="1" layer="-1.00" shape="958.579327,1061.595921 965.141627,1064.490109 963.382100,1068.419983 981.629931,1076.473187 983.994001,1071.167143 988.545848,1073.169222 986.923663,1076.824094 1007.018794,1085.689545 1001.633548,1097.765688 981.885458,1089.049082 979.510809,1094.377132 1000.728642,1103.734588 994.950982,1116.702478 974.804789,1107.814147 972.271182,1113.494437 965.627344,1110.554807 967.853313,1105.579142 949.534049,1097.491695 955.671956,1083.731315 976.012090,1092.699924 978.514119,1087.074578 952.366932,1075.543568 958.579327,1061.595921"/>
    <poly id="109496251" type="building.university" color="255,230,230" fill="1" layer="-1.00" shape="638.318494,1052.153631 625.994922,1052.235883 625.672871,1004.090897 636.722876,1004.024051 636.864003,1024.751022 641.680459,1024.718753 641.719822,1031.443020 638.176740,1031.470960 638.318494,1052.153631"/>
    <poly id="109496255" type="building.university" color="255,230,230" fill="1" layer="-1.00" shape="658.101065,1067.196133 657.852987,1051.906457 679.606783,1051.568473 679.854882,1066.858147 658.101065,1067.196133"/>
    <poly id="109496257" type="building.university" color="255,230,230" fill="1" layer="-1.00" shape="905.355639,1011.736732 906.470457,979.739952 927.387764,980.464391 926.272991,1012.461169 905.355639,1011.736732"/>
    <poly id="109496258" type="building.university" color="255,230,230" fill="1" layer="-1.00" shape="884.895980,1014.264210 885.658798,994.225606 903.629607,994.908876 902.877235,1014.936548 884.895980,1014.264210"/>
    <poly id="1125939171" type="leisure.pitch" color="207,245,201" fill="0" layer="-2.00" shape="-5.438088,1387.213188 0.826762,1387.157138 6.911148,1385.326232 12.688440,1381.231305 16.127039,1376.217386 18.057487,1371.104758 18.130555,1365.899594 17.853154,1361.520285 2.903794,1367.214466 1.277390,1363.104220 -4.871352,1370.251180"/>
    <poly id="1125939171#1" type="sport.athletics" color="79,230,125" fill="0" layer="-2.00" shape="-5.438088,1387.213188 0.826762,1387.157138 6.911148,1385.326232 12.688440,1381.231305 16.127039,1376.217386 18.057487,1371.104758 18.130555,1365.899594 17.853154,1361.520285 2.903794,1367.214466 1.277390,1363.104220 -4.871352,1370.251180"/>
    <poly id="1125939173" type="leisure.pitch" color="207,245,201" fill="1" layer="-2.00" shape="6.700070,1265.038123 6.300399,1259.128470 4.000434,1253.989683 0.291276,1249.750502 -4.513934,1246.780864 6.700070,1265.038123"/>
    <poly id="1125939173#1" type="sport.athletics" color="79,230,125" fill="1" layer="-2.00" shape="6.700070,1265.038123 6.300399,1259.128470 4.000434,1253.989683 0.291276,1249.750502 -4.513934,1246.780864 6.700070,1265.038123"/>
    <poly id="1125939174" type="leisure.track" color="207,245,201" fill="1" layer="-2.00" shape="10.627137,1243.515256 6.775691,1267.697664 11.098663,1268.445128 14.732327,1245.145821 10.627137,1243.515256"/>
    <poly id="1125939174#1" type="sport.athletics" color="79,230,125" fill="1" layer="-2.00" shape="10.627137,1243.515256 6.775691,1267.697664 11.098663,1268.445128 14.732327,1245.145821 10.627137,1243.515256"/>
    <poly id="1125939175" type="leisure.track" color="207,245,201" fill="0" layer="-2.00" shape="3.342810,1242.316368 10.627137,1243.515256 14.732327,1245.145821 21.231879,1248.117084 26.687797,1251.550005 32.906904,1256.943188 29.242997,1251.674490 24.727106,1247.113835 19.501568,1243.362915 13.708098,1240.567718 7.530875,1238.775139 1.133234,1238.053932"/>
    <poly id="1125939175#1" type="sport.athletics" color="79,230,125" fill="0" layer="-2.00" shape="3.342810,1242.316368 10.627137,1243.515256 14.732327,1245.145821 21.231879,1248.117084 26.687797,1251.550005 32.906904,1256.943188 29.242997,1251.674490 24.727106,1247.113835 19.501568,1243.362915 13.708098,1240.567718 7.530875,1238.775139 1.133234,1238.053932"/>
    <poly id="1125939176" type="leisure.pitch" color="207,245,201" fill="1" layer="-2.00" shape="33.056688,1289.434129 34.542896,1289.632223 35.337277,1283.517794 30.703963,1282.932136 29.909735,1289.035491 31.139738,1289.196758 33.056688,1289.434129"/>
    <poly id="1125939176#1" type="sport.athletics" color="79,230,125" fill="1" layer="-2.00" shape="33.056688,1289.434129 34.542896,1289.632223 35.337277,1283.517794 30.703963,1282.932136 29.909735,1289.035491 31.139738,1289.196758 33.056688,1289.434129"/>
    <poly id="1125939177" type="leisure.track" color="207,245,201" fill="1" layer="-2.00" shape="24.253624,1342.291845 31.139738,1289.196758 33.056688,1289.434129 26.160159,1342.540148 24.253624,1342.291845"/>
    <poly id="1125939177#1" type="sport.athletics" color="79,230,125" fill="1" layer="-2.00" shape="24.253624,1342.291845 31.139738,1289.196758 33.056688,1289.434129 26.160159,1342.540148 24.253624,1342.291845"/>
    <poly id="1125939178" type="leisure.pitch" color="207,245,201" fill="1" layer="-2.00" shape="22.508160,1349.589240 23.464317,1342.192150 24.253624,1342.291845 26.160159,1342.540148 27.154493,1342.664875 26.198339,1350.061966 22.508160,1349.589240"/>
    <poly id="1125939178#1" type="sport.athletics" color="79,230,125" fill="1" layer="-2.00" shape="22.508160,1349.589240 23.464317,1342.192150 24.253624,1342.291845 26.160159,1342.540148 27.154493,1342.664875 26.198339,1350.061966 22.508160,1349.589240"/>
    <poly id="1125939180" type="leisure.track" color="white" fill="1" layer="0.00" shape="37.427188,1281.675117 27.028802,1359.666304 25.612798,1365.439698 23.297347,1370.912464 20.135492,1375.963499 16.221655,1380.450128 11.639527,1384.262755 6.513554,1387.314510 0.968028,1389.529599 -4.862647,1390.843446 1.133234,1238.053932 7.530875,1238.775139 13.708098,1240.567718 19.501568,1243.362915 24.727106,1247.113835 29.242997,1251.674490 32.906904,1256.943188 35.618647,1262.741293 37.308378,1268.923823 37.917293,1275.290568 37.427188,1281.675117"/>
    <poly id="1125939180#1" type="sport.athletics" color="white" fill="1" layer="0.00" shape="37.427188,1281.675117 27.028802,1359.666304 25.612798,1365.439698 23.297347,1370.912464 20.135492,1375.963499 16.221655,1380.450128 11.639527,1384.262755 6.513554,1387.314510 0.968028,1389.529599 -4.862647,1390.843446 1.133234,1238.053932 7.530875,1238.775139 13.708098,1240.567718 19.501568,1243.362915 24.727106,1247.113835 29.242997,1251.674490 32.906904,1256.943188 35.618647,1262.741293 37.308378,1268.923823 37.917293,1275.290568 37.427188,1281.675117"/>
    <poly id="1144872808" type="amenity.library" color="237,199,199" fill="1" layer="-1.00" shape="501.241211,1113.040538 515.321158,1126.862425 504.540745,1137.733012 513.049396,1146.093453 523.631792,1135.430550 537.276204,1148.825386 522.600657,1163.595913 519.571847,1160.629173 516.207601,1164.015914 513.957873,1166.277336 521.281312,1173.480244 512.011583,1182.799066 493.059512,1164.179071 505.964460,1151.189316 509.985756,1155.144734 510.672979,1154.467587 500.958869,1144.927178 494.188841,1151.733300 486.946473,1144.609052 482.003169,1139.765631 484.461180,1137.296668 480.764087,1133.655940 501.241211,1113.040538"/>
    <poly id="1144872808#1" type="building.yes" color="255,230,230" fill="1" layer="-1.00" shape="501.241211,1113.040538 515.321158,1126.862425 504.540745,1137.733012 513.049396,1146.093453 523.631792,1135.430550 537.276204,1148.825386 522.600657,1163.595913 519.571847,1160.629173 516.207601,1164.015914 513.957873,1166.277336 521.281312,1173.480244 512.011583,1182.799066 493.059512,1164.179071 505.964460,1151.189316 509.985756,1155.144734 510.672979,1154.467587 500.958869,1144.927178 494.188841,1151.733300 486.946473,1144.609052 482.003169,1139.765631 484.461180,1137.296668 480.764087,1133.655940 501.241211,1113.040538"/>
    <poly id="1145132048" type="leisure.park" color="207,245,201" fill="1" layer="-2.00" shape="520.347021,1276.117408 529.965908,1301.263905 533.053776,1309.548409 452.616769,1330.874777 431.702120,1332.121466 403.906797,1333.404637 397.032516,1333.718158 397.899759,1277.691900 410.148095,1277.863532 425.013258,1278.891515 440.711249,1279.111456 447.863355,1279.488581 448.509771,1272.928993 497.519893,1273.881381 498.369495,1252.813812 512.383940,1255.192263 520.347021,1276.117408"/>
    <poly id="1145132049" type="leisure.park" color="207,245,201" fill="1" layer="-2.00" shape="627.633751,1205.109805 649.385511,1228.410043 628.086003,1248.360585 600.904637,1268.151219 551.806396,1293.295256 539.880268,1297.979962 536.737933,1289.185156 531.247944,1273.511907 546.403359,1267.011500 551.159098,1263.987623 558.331970,1259.214199 565.960176,1254.923458 577.014138,1248.720056 586.240754,1242.479986 595.315342,1235.362703 627.633751,1205.109805"/>
    <poly id="1145132051" type="leisure.park" color="207,245,201" fill="1" layer="-2.00" shape="166.189437,1176.943483 193.939676,1197.160576 214.622623,1213.888931 234.876828,1227.509685 255.579669,1239.896078 273.501092,1249.252654 252.943038,1302.698836 250.212984,1302.594092 247.564772,1303.243730 234.899191,1302.800270 229.901061,1301.135091 180.194601,1255.376735 139.713356,1202.049112 149.954018,1192.345345 166.189437,1176.943483"/>
    <poly id="1145241611" type="landuse.grass" color="194,194,130" fill="1" layer="-3.00" shape="661.020287,1247.470177 822.697054,1405.008737 788.527752,1425.898294 712.935788,1454.693228 686.125438,1461.163651 671.448234,1416.606145 661.907319,1419.618480 642.856806,1364.709236 630.711346,1366.721399 633.134471,1350.605113 613.519978,1335.265890 605.105697,1345.826289 598.737699,1367.924292 583.901945,1365.523357 577.696471,1336.403763 557.505710,1342.423853 547.100137,1318.451601 552.683657,1312.780842 584.848848,1297.889614 615.696783,1278.061715 661.020287,1247.470177"/>
    <poly id="1145241612" type="landuse.grass" color="194,194,130" fill="1" layer="-3.00" shape="324.256133,823.965634 325.920920,788.719853 339.137799,788.628234 339.322921,795.199482 354.188831,795.407893 355.752559,782.015588 371.457649,781.692975 371.669642,786.348280 379.941940,785.910388 380.018628,780.439434 401.777223,780.467491 401.640222,802.697071 382.123506,805.358917 353.107221,811.033431 324.256133,823.965634"/>
    <poly id="1145241613" type="landuse.grass" color="194,194,130" fill="1" layer="-3.00" shape="762.846346,978.052439 716.288717,978.763452 716.583796,996.568251 706.739044,1011.772067 690.741212,1013.187569 690.320937,1063.027996 754.569422,1057.347315 761.302313,1028.962668 762.846346,978.052439"/>
    <poly id="1145241614" type="landuse.grass" color="194,194,130" fill="1" layer="-3.00" shape="565.547163,1122.348569 519.625464,1077.619125 541.244187,1048.069481 543.151367,1049.735582 539.172288,1058.164812 545.445410,1062.639145 569.953494,1043.808126 623.291570,1070.031946 600.650007,1074.367283 568.263055,1105.128688 565.547163,1122.348569"/>
    <poly id="1145241615" type="landuse.grass" color="194,194,130" fill="1" layer="-3.00" shape="641.288349,1200.914465 656.348896,1187.976919 673.161972,1206.832599 658.135990,1217.300485 641.288349,1200.914465"/>
    <poly id="1190902780" type="amenity.social_centre" color="237,199,199" fill="1" layer="-1.00" shape="878.656658,535.962956 869.211405,526.304673 884.829493,512.355689 893.965672,522.087178 878.656658,535.962956"/>