<?xml version="1.0" encoding="UTF-8"?>

<!-- generated on 2024-09-13 12:31:56 by Eclipse SUMO netedit Version 1.20.0
-->

<additional xmlns:xsi="http://www.w3.org/2001/XMLSchema-instance" xsi:noNamespaceSchemaLocation="http://sumo.dlr.de/xsd/additional_file.xsd">
    <!-- StoppingPlaces -->
    <parkingArea id="pa-1046248579" lane="-1046248579_0" roadsideCapacity="42" length="5.00"/>
    <parkingArea id="pa-179051712" lane="-179051712_0" roadsideCapacity="12" length="5.00"/>
    <parkingArea id="pa-183876531#0" lane="-183876531#0_0" roadsideCapacity="1" length="5.00"/>
    <parkingArea id="pa-183876531#1" lane="-183876531#1_0" roadsideCapacity="4" length="5.00"/>
    <parkingArea id="pa-183876531#2" lane="-183876531#2_0" roadsideCapacity="3" length="5.00"/>
    <parkingArea id="pa-183876531#3" lane="-183876531#3_0" roadsideCapacity="4" length="5.00"/>
    <parkingArea id="pa-183876531#4" lane="-183876531#4_0" roadsideCapacity="3" length="5.00"/>
    <parkingArea id="pa-183876531#6" lane="-183876531#6_0" roadsideCapacity="7" length="5.00"/>
    <parkingArea id="pa-183876531#7" lane="-183876531#7_0" roadsideCapacity="15" length="5.00"/>
    <parkingArea id="pa-278132384#0" lane="-278132384#0_0" roadsideCapacity="7" length="5.00"/>
    <parkingArea id="pa-278132384#1" lane="-278132384#1_0" roadsideCapacity="17" length="5.00"/>
    <parkingArea id="pa-278132384#2" lane="-278132384#2_0" roadsideCapacity="12" length="5.00"/>
    <parkingArea id="pa-278132384#3" lane="-278132384#3_0" roadsideCapacity="12" length="5.00"/>
    <parkingArea id="pa-278132384#6" lane="-278132384#6_0" roadsideCapacity="18" length="5.00"/>
    <parkingArea id="pa-278132384#7" lane="-278132384#7_0" roadsideCapacity="1" length="5.00"/>
    <parkingArea id="pa-329703621#0" lane="-329703621#0_0" roadsideCapacity="3" length="5.00"/>
    <parkingArea id="pa-329703621#1" lane="-329703621#1_0" roadsideCapacity="10" length="5.00"/>
    <parkingArea id="pa-329703621#2" lane="-329703621#2_0" roadsideCapacity="9" length="5.00"/>
    <parkingArea id="pa-329703621#3" lane="-329703621#3_0" roadsideCapacity="11" length="5.00"/>
    <parkingArea id="pa-329703621#4" lane="-329703621#4_0" roadsideCapacity="2" length="5.00"/>
    <parkingArea id="pa-329703621#5" lane="-329703621#5_0" roadsideCapacity="14" length="5.00"/>
    <parkingArea id="pa-329703621#6" lane="-329703621#6_0" roadsideCapacity="2" length="5.00"/>
    <parkingArea id="pa-329703621#7" lane="-329703621#7_0" roadsideCapacity="1" length="5.00"/>
    <parkingArea id="pa-447326048#1" lane="-447326048#1_0" roadsideCapacity="13" length="5.00"/>
    <parkingArea id="pa-447326048#2" lane="-447326048#2_0" roadsideCapacity="7" length="5.00"/>
    <parkingArea id="pa-447326048#5" lane="-447326048#5_0" roadsideCapacity="2" length="5.00"/>
    <parkingArea id="pa-447326048#6" lane="-447326048#6_0" roadsideCapacity="16" length="5.00"/>
    <parkingArea id="pa-447326050#1" lane="-447326050#1_0" roadsideCapacity="8" length="5.00"/>
    <parkingArea id="pa-447326319#1" lane="-447326319#1_0" roadsideCapacity="3" length="5.00"/>
    <parkingArea id="pa-447326319#2" lane="-447326319#2_0" roadsideCapacity="2" length="5.00"/>
    <parkingArea id="pa-447326319#3" lane="-447326319#3_0" roadsideCapacity="11" length="5.00"/>
    <parkingArea id="pa-447326319#4" lane="-447326319#4_0" roadsideCapacity="5" length="5.00"/>
    <parkingArea id="pa-537232373" lane="-537232373_0" roadsideCapacity="33" length="5.00"/>
    <parkingArea id="pa-537232374#0" lane="-537232374#0_0" roadsideCapacity="22" length="5.00"/>
    <parkingArea id="pa-537232374#1" lane="-537232374#1_0" roadsideCapacity="11" length="5.00"/>
    <parkingArea id="pa-537232374#2" lane="-537232374#2_0" roadsideCapacity="23" length="5.00"/>
    <parkingArea id="pa-537232375" lane="-537232375_0" roadsideCapacity="14" length="5.00"/>
    <parkingArea id="pa-537232376" lane="-537232376_0" roadsideCapacity="13" length="5.00"/>
    <parkingArea id="pa-563505734#0" lane="-563505734#0_0" roadsideCapacity="8" length="5.00"/>
    <parkingArea id="pa-563505734#1" lane="-563505734#1_0" roadsideCapacity="19" length="5.00"/>
    <parkingArea id="pa-563505766#1" lane="-563505766#1_0" roadsideCapacity="22" length="5.00"/>
    <parkingArea id="pa-563505767#1" lane="-563505767#1_0" roadsideCapacity="37" length="5.00"/>
    <parkingArea id="pa-563505769#1" lane="-563505769#1_0" roadsideCapacity="6" length="5.00"/>
    <parkingArea id="pa-563505769#10" lane="-563505769#10_0" roadsideCapacity="2" length="5.00"/>
    <parkingArea id="pa-563505769#13" lane="-563505769#13_0" roadsideCapacity="12" length="5.00"/>
    <parkingArea id="pa-563505769#15" lane="-563505769#15_0" roadsideCapacity="5" length="5.00"/>
    <parkingArea id="pa-563505769#18" lane="-563505769#18_0" roadsideCapacity="4" length="5.00"/>
    <parkingArea id="pa-563505769#2" lane="-563505769#2_0" roadsideCapacity="12" length="5.00"/>
    <parkingArea id="pa-563505769#20" lane="-563505769#20_0" roadsideCapacity="12" length="5.00"/>
    <parkingArea id="pa-563505769#3" lane="-563505769#3_0" roadsideCapacity="9" length="5.00"/>
    <parkingArea id="pa-563505769#4" lane="-563505769#4_0" roadsideCapacity="4" length="5.00"/>
    <parkingArea id="pa-563505769#5" lane="-563505769#5_0" roadsideCapacity="4" length="5.00"/>
    <parkingArea id="pa-563505769#8" lane="-563505769#8_0" roadsideCapacity="5" length="5.00"/>
    <parkingArea id="pa-563505769#9" lane="-563505769#9_0" roadsideCapacity="10" length="5.00"/>
    <parkingArea id="pa-70080981#0" lane="-70080981#0_0" roadsideCapacity="24" length="5.00"/>
    <parkingArea id="pa-70080981#1" lane="-70080981#1_0" roadsideCapacity="25" length="5.00"/>
    <parkingArea id="pa-70080981#2" lane="-70080981#2_0" roadsideCapacity="15" length="5.00"/>
    <parkingArea id="pa-70080981#3" lane="-70080981#3_0" roadsideCapacity="5" length="5.00"/>
    <parkingArea id="pa-70200197" lane="-70200197_0" roadsideCapacity="5" length="5.00"/>
    <parkingArea id="pa-72508571#0" lane="-72508571#0_0" roadsideCapacity="17" length="5.00"/>
    <parkingArea id="pa-72508571#1" lane="-72508571#1_0" roadsideCapacity="24" length="5.00"/>
    <parkingArea id="pa-72508571#2" lane="-72508571#2_0" roadsideCapacity="22" length="5.00"/>
    <parkingArea id="pa-72508821" lane="-72508821_0" roadsideCapacity="11" length="5.00"/>
    <parkingArea id="pa-72641085#0" lane="-72641085#0_0" roadsideCapacity="14" length="5.00"/>
    <parkingArea id="pa-72641085#1" lane="-72641085#1_0" roadsideCapacity="7" length="5.00"/>
    <parkingArea id="pa-72641085#2" lane="-72641085#2_0" roadsideCapacity="13" length="5.00"/>
    <parkingArea id="pa-72644721#0" lane="-72644721#0_0" roadsideCapacity="10" length="5.00"/>
    <parkingArea id="pa-72644721#1" lane="-72644721#1_0" roadsideCapacity="9" length="5.00"/>
    <parkingArea id="pa-72644721#2" lane="-72644721#2_0" roadsideCapacity="10" length="5.00"/>
    <parkingArea id="pa-72644721#3" lane="-72644721#3_0" roadsideCapacity="9" length="5.00"/>
    <parkingArea id="pa-72644721#4" lane="-72644721#4_0" roadsideCapacity="10" length="5.00"/>
    <parkingArea id="pa-72644721#5" lane="-72644721#5_0" roadsideCapacity="9" length="5.00"/>
    <parkingArea id="pa-72644726#0" lane="-72644726#0_0" roadsideCapacity="26" length="5.00"/>
    <parkingArea id="pa-72644726#1" lane="-72644726#1_0" roadsideCapacity="24" length="5.00"/>
    <parkingArea id="pa-72644726#2" lane="-72644726#2_0" roadsideCapacity="6" length="5.00"/>
    <parkingArea id="pa-75259399" lane="-75259399_0" roadsideCapacity="27" length="5.00"/>
    <parkingArea id="pa-75259400#0" lane="-75259400#0_0" roadsideCapacity="10" length="5.00"/>
    <parkingArea id="pa-75259400#1" lane="-75259400#1_0" roadsideCapacity="9" length="5.00"/>
    <parkingArea id="pa-75259400#2" lane="-75259400#2_0" roadsideCapacity="9" length="5.00"/>
    <parkingArea id="pa-75259400#3" lane="-75259400#3_0" roadsideCapacity="10" length="5.00"/>
    <parkingArea id="pa-75259405#0" lane="-75259405#0_0" roadsideCapacity="10" length="5.00"/>
    <parkingArea id="pa-75259405#1" lane="-75259405#1_0" roadsideCapacity="9" length="5.00"/>
    <parkingArea id="pa-75259406#0" lane="-75259406#0_0" roadsideCapacity="24" length="5.00"/>
    <parkingArea id="pa-75259406#1" lane="-75259406#1_0" roadsideCapacity="9" length="5.00"/>
    <parkingArea id="pa-75259407" lane="-75259407_0" roadsideCapacity="16" length="5.00"/>
    <parkingArea id="pa-75413329#0" lane="-75413329#0_0" roadsideCapacity="24" length="5.00"/>
    <parkingArea id="pa-75413329#1" lane="-75413329#1_0" roadsideCapacity="14" length="5.00"/>
    <parkingArea id="pa-75413330" lane="-75413330_0" roadsideCapacity="10" length="5.00"/>
    <parkingArea id="pa-75413331" lane="-75413331_0" roadsideCapacity="23" length="5.00"/>
    <parkingArea id="pa-75413336#0" lane="-75413336#0_0" roadsideCapacity="9" length="5.00"/>
    <parkingArea id="pa-75413336#1" lane="-75413336#1_0" roadsideCapacity="9" length="5.00"/>
    <parkingArea id="pa-75413336#2" lane="-75413336#2_0" roadsideCapacity="9" length="5.00"/>
    <parkingArea id="pa-75413336#3" lane="-75413336#3_0" roadsideCapacity="2" length="5.00"/>
    <parkingArea id="pa-75413339#2" lane="-75413339#2_0" roadsideCapacity="24" length="5.00"/>
    <parkingArea id="pa-75413339#3" lane="-75413339#3_0" roadsideCapacity="25" length="5.00"/>
    <parkingArea id="pa-75413339#4" lane="-75413339#4_0" roadsideCapacity="23" length="5.00"/>
    <parkingArea id="pa-75413343#0" lane="-75413343#0_0" roadsideCapacity="9" length="5.00"/>
    <parkingArea id="pa-75413343#1" lane="-75413343#1_0" roadsideCapacity="10" length="5.00"/>
    <parkingArea id="pa-75413343#2" lane="-75413343#2_0" roadsideCapacity="10" length="5.00"/>
    <parkingArea id="pa-75679328#1" lane="-75679328#1_0" roadsideCapacity="33" length="5.00"/>
    <parkingArea id="pa-75679328#2" lane="-75679328#2_0" roadsideCapacity="21" length="5.00"/>
    <parkingArea id="pa-75701376#1" lane="-75701376#1_0" roadsideCapacity="7" length="5.00"/>
    <parkingArea id="pa-75701376#2" lane="-75701376#2_0" roadsideCapacity="16" length="5.00"/>
    <parkingArea id="pa-75701376#3" lane="-75701376#3_0" roadsideCapacity="6" length="5.00"/>
    <parkingArea id="pa-75701376#4" lane="-75701376#4_0" roadsideCapacity="8" length="5.00"/>
    <parkingArea id="pa-75701376#5" lane="-75701376#5_0" roadsideCapacity="38" length="5.00"/>
    <parkingArea id="pa-75701376#6" lane="-75701376#6_0" roadsideCapacity="13" length="5.00"/>
    <parkingArea id="pa-75701376#7" lane="-75701376#7_0" roadsideCapacity="5" length="5.00"/>
    <parkingArea id="pa-77674920#0" lane="-77674920#0_0" roadsideCapacity="3" length="5.00"/>
    <parkingArea id="pa-77674920#2" lane="-77674920#2_0" roadsideCapacity="6" length="5.00"/>
    <parkingArea id="pa-889486571#1" lane="-889486571#1_0" roadsideCapacity="2" length="5.00"/>
    <parkingArea id="pa-890559137#0" lane="-890559137#0_0" roadsideCapacity="3" length="5.00"/>
    <parkingArea id="pa-890559137#1" lane="-890559137#1_0" roadsideCapacity="3" length="5.00"/>
    <parkingArea id="pa-90743683#0" lane="-90743683#0_0" roadsideCapacity="10" length="5.00"/>
    <parkingArea id="pa-90743683#1" lane="-90743683#1_0" roadsideCapacity="12" length="5.00"/>
    <parkingArea id="pa-90743683#2" lane="-90743683#2_0" roadsideCapacity="9" length="5.00"/>
    <parkingArea id="pa1013410328" lane="1013410328_0" roadsideCapacity="1" length="5.00"/>
    <parkingArea id="pa1013410330" lane="1013410330_0" roadsideCapacity="3" length="5.00"/>
    <parkingArea id="pa1013410331" lane="1013410331_0" roadsideCapacity="1" length="5.00"/>
    <parkingArea id="pa1046248579" lane="1046248579_0" roadsideCapacity="42" length="5.00"/>
    <parkingArea id="pa147379116#0" lane="147379116#0_0" roadsideCapacity="6" length="5.00"/>
    <parkingArea id="pa147379501" lane="147379501_0" roadsideCapacity="14" length="5.00"/>
    <parkingArea id="pa147419849#0" lane="147419849#0_0" roadsideCapacity="24" length="5.00"/>
    <parkingArea id="pa147419849#2" lane="147419849#2_0" roadsideCapacity="10" length="5.00"/>
    <parkingArea id="pa147419849#3" lane="147419849#3_0" roadsideCapacity="10" length="5.00"/>
    <parkingArea id="pa147419849#4" lane="147419849#4_0" roadsideCapacity="9" length="5.00"/>
    <parkingArea id="pa147419849#5" lane="147419849#5_0" roadsideCapacity="11" length="5.00"/>
    <parkingArea id="pa179051712" lane="179051712_0" roadsideCapacity="12" length="5.00"/>
    <parkingArea id="pa183876531#0" lane="183876531#0_0" roadsideCapacity="1" length="5.00"/>
    <parkingArea id="pa183876531#1" lane="183876531#1_0" roadsideCapacity="4" length="5.00"/>
    <parkingArea id="pa183876531#2" lane="183876531#2_0" roadsideCapacity="3" length="5.00"/>
    <parkingArea id="pa183876531#3" lane="183876531#3_0" roadsideCapacity="4" length="5.00"/>
    <parkingArea id="pa183876531#4" lane="183876531#4_0" roadsideCapacity="3" length="5.00"/>
    <parkingArea id="pa183876531#6" lane="183876531#6_0" roadsideCapacity="7" length="5.00"/>
    <parkingArea id="pa183876531#7" lane="183876531#7_0" roadsideCapacity="15" length="5.00"/>
    <parkingArea id="pa237036477#1" lane="237036477#1_0" roadsideCapacity="2" length="5.00"/>
    <parkingArea id="pa237036477#10" lane="237036477#10_0" roadsideCapacity="1" length="5.00"/>
    <parkingArea id="pa237036477#12" lane="237036477#12_0" roadsideCapacity="1" length="5.00"/>
    <parkingArea id="pa237036477#13" lane="237036477#13_0" roadsideCapacity="3" length="5.00"/>
    <parkingArea id="pa237036477#14" lane="237036477#14_0" roadsideCapacity="3" length="5.00"/>
    <parkingArea id="pa237036477#15" lane="237036477#15_0" roadsideCapacity="3" length="5.00"/>
    <parkingArea id="pa237036477#16" lane="237036477#16_0" roadsideCapacity="1" length="5.00"/>
    <parkingArea id="pa237036477#18" lane="237036477#18_0" roadsideCapacity="9" length="5.00"/>
    <parkingArea id="pa237036477#19" lane="237036477#19_0" roadsideCapacity="3" length="5.00"/>
    <parkingArea id="pa237036477#2" lane="237036477#2_0" roadsideCapacity="7" length="5.00"/>
    <parkingArea id="pa237036477#22" lane="237036477#22_0" roadsideCapacity="2" length="5.00"/>
    <parkingArea id="pa237036477#23" lane="237036477#23_0" roadsideCapacity="4" length="5.00"/>
    <parkingArea id="pa237036477#24" lane="237036477#24_0" roadsideCapacity="5" length="5.00"/>
    <parkingArea id="pa237036477#4" lane="237036477#4_0" roadsideCapacity="5" length="5.00"/>
    <parkingArea id="pa237036477#7" lane="237036477#7_0" roadsideCapacity="2" length="5.00"/>
    <parkingArea id="pa237036477#8" lane="237036477#8_0" roadsideCapacity="2" length="5.00"/>
    <parkingArea id="pa260761733#0" lane="260761733#0_0" roadsideCapacity="6" length="5.00"/>
    <parkingArea id="pa260761733#1" lane="260761733#1_0" roadsideCapacity="16" length="5.00"/>
    <parkingArea id="pa260761733#1-AddedOnRampEdge" lane="260761733#1-AddedOnRampEdge_0" roadsideCapacity="15" length="5.00"/>
    <parkingArea id="pa260761733#2" lane="260761733#2_0" roadsideCapacity="11" length="5.00"/>
    <parkingArea id="pa260761733#3" lane="260761733#3_0" roadsideCapacity="29" length="5.00"/>
    <parkingArea id="pa260761733#4" lane="260761733#4_0" roadsideCapacity="9" length="5.00"/>
    <parkingArea id="pa260761733#5" lane="260761733#5_0" roadsideCapacity="1" length="5.00"/>
    <parkingArea id="pa269853395#0" lane="269853395#0_0" roadsideCapacity="3" length="5.00"/>
    <parkingArea id="pa269853395#1" lane="269853395#1_0" roadsideCapacity="7" length="5.00"/>
    <parkingArea id="pa269853395#2" lane="269853395#2_0" roadsideCapacity="6" length="5.00"/>
    <parkingArea id="pa278132384#0" lane="278132384#0_0" roadsideCapacity="7" length="5.00"/>
    <parkingArea id="pa278132384#1" lane="278132384#1_0" roadsideCapacity="17" length="5.00"/>
    <parkingArea id="pa278132384#2" lane="278132384#2_0" roadsideCapacity="12" length="5.00"/>
    <parkingArea id="pa278132384#3" lane="278132384#3_0" roadsideCapacity="12" length="5.00"/>
    <parkingArea id="pa278132384#6" lane="278132384#6_0" roadsideCapacity="18" length="5.00"/>
    <parkingArea id="pa278132384#7" lane="278132384#7_0" roadsideCapacity="1" length="5.00"/>
    <parkingArea id="pa329703619#0" lane="329703619#0_0" roadsideCapacity="41" length="5.00"/>
    <parkingArea id="pa329703619#2" lane="329703619#2_0" roadsideCapacity="7" length="5.00"/>
    <parkingArea id="pa329703619#3" lane="329703619#3_0" roadsideCapacity="17" length="5.00"/>
    <parkingArea id="pa329703620#0" lane="329703620#0_0" roadsideCapacity="8" length="5.00"/>
    <parkingArea id="pa329703620#1" lane="329703620#1_0" roadsideCapacity="8" length="5.00"/>
    <parkingArea id="pa329703620#2" lane="329703620#2_0" roadsideCapacity="2" length="5.00"/>
    <parkingArea id="pa329703620#3" lane="329703620#3_0" roadsideCapacity="2" length="5.00"/>
    <parkingArea id="pa329703620#4" lane="329703620#4_0" roadsideCapacity="9" length="5.00"/>
    <parkingArea id="pa329703620#5" lane="329703620#5_0" roadsideCapacity="13" length="5.00"/>
    <parkingArea id="pa329703620#7" lane="329703620#7_0" roadsideCapacity="15" length="5.00"/>
    <parkingArea id="pa329703621#0" lane="329703621#0_0" roadsideCapacity="3" length="5.00"/>
    <parkingArea id="pa329703621#1" lane="329703621#1_0" roadsideCapacity="10" length="5.00"/>
    <parkingArea id="pa329703621#2" lane="329703621#2_0" roadsideCapacity="9" length="5.00"/>
    <parkingArea id="pa329703621#3" lane="329703621#3_0" roadsideCapacity="11" length="5.00"/>
    <parkingArea id="pa329703621#4" lane="329703621#4_0" roadsideCapacity="2" length="5.00"/>
    <parkingArea id="pa329703621#5" lane="329703621#5_0" roadsideCapacity="14" length="5.00"/>
    <parkingArea id="pa329703621#6" lane="329703621#6_0" roadsideCapacity="2" length="5.00"/>
    <parkingArea id="pa329703621#7" lane="329703621#7_0" roadsideCapacity="1" length="5.00"/>
    <parkingArea id="pa329703621#8" lane="329703621#8_0" roadsideCapacity="8" length="5.00"/>
    <parkingArea id="pa362639206" lane="362639206_0" roadsideCapacity="18" length="5.00"/>
    <parkingArea id="pa386834059#1" lane="386834059#1_0" roadsideCapacity="32" length="5.00"/>
    <parkingArea id="pa386834059#5" lane="386834059#5_0" roadsideCapacity="27" length="5.00"/>
    <parkingArea id="pa386834060#1" lane="386834060#1_0" roadsideCapacity="18" length="5.00"/>
    <parkingArea id="pa386834060#11" lane="386834060#11_0" roadsideCapacity="4" length="5.00"/>
    <parkingArea id="pa386834060#12" lane="386834060#12_0" roadsideCapacity="6" length="5.00"/>
    <parkingArea id="pa386834060#13" lane="386834060#13_0" roadsideCapacity="1" length="5.00"/>
    <parkingArea id="pa386834060#3" lane="386834060#3_0" roadsideCapacity="2" length="5.00"/>
    <parkingArea id="pa386834060#4" lane="386834060#4_0" roadsideCapacity="3" length="5.00"/>
    <parkingArea id="pa386834060#7" lane="386834060#7_0" roadsideCapacity="3" length="5.00"/>
    <parkingArea id="pa386834060#8" lane="386834060#8_0" roadsideCapacity="4" length="5.00"/>
    <parkingArea id="pa386834060#9" lane="386834060#9_0" roadsideCapacity="6" length="5.00"/>
    <parkingArea id="pa447326048#1" lane="447326048#1_0" roadsideCapacity="13" length="5.00"/>
    <parkingArea id="pa447326048#2" lane="447326048#2_0" roadsideCapacity="7" length="5.00"/>
    <parkingArea id="pa447326048#5" lane="447326048#5_0" roadsideCapacity="2" length="5.00"/>
    <parkingArea id="pa447326048#6" lane="447326048#6_0" roadsideCapacity="16" length="5.00"/>
    <parkingArea id="pa447326049#1" lane="447326049#1_0" roadsideCapacity="1" length="5.00"/>
    <parkingArea id="pa447326049#10" lane="447326049#10_0" roadsideCapacity="1" length="5.00"/>
    <parkingArea id="pa447326049#2" lane="447326049#2_0" roadsideCapacity="1" length="5.00"/>
    <parkingArea id="pa447326049#3" lane="447326049#3_0" roadsideCapacity="5" length="5.00"/>
    <parkingArea id="pa447326049#4" lane="447326049#4_0" roadsideCapacity="1" length="5.00"/>
    <parkingArea id="pa447326049#7" lane="447326049#7_0" roadsideCapacity="9" length="5.00"/>
    <parkingArea id="pa447326049#8" lane="447326049#8_0" roadsideCapacity="1" length="5.00"/>
    <parkingArea id="pa447326050#1" lane="447326050#1_0" roadsideCapacity="8" length="5.00"/>
    <parkingArea id="pa447326318" lane="447326318_0" roadsideCapacity="6" length="5.00"/>
    <parkingArea id="pa447326318-AddedOnRampEdge" lane="447326318-AddedOnRampEdge_0" roadsideCapacity="16" length="5.00"/>
    <parkingArea id="pa447326319#1" lane="447326319#1_0" roadsideCapacity="3" length="5.00"/>
    <parkingArea id="pa447326319#2" lane="447326319#2_0" roadsideCapacity="2" length="5.00"/>
    <parkingArea id="pa447326319#3" lane="447326319#3_0" roadsideCapacity="10" length="5.00"/>
    <parkingArea id="pa447326319#4" lane="447326319#4_0" roadsideCapacity="5" length="5.00"/>
    <parkingArea id="pa447326321#0" lane="447326321#0_0" roadsideCapacity="10" length="5.00"/>
    <parkingArea id="pa447326321#1" lane="447326321#1_0" roadsideCapacity="6" length="5.00"/>
    <parkingArea id="pa447326322#0" lane="447326322#0_0" roadsideCapacity="33" length="5.00"/>
    <parkingArea id="pa447326322#1" lane="447326322#1_0" roadsideCapacity="11" length="5.00"/>
    <parkingArea id="pa447326322#2" lane="447326322#2_0" roadsideCapacity="4" length="5.00"/>
    <parkingArea id="pa447326322#3" lane="447326322#3_0" roadsideCapacity="2" length="5.00"/>
    <parkingArea id="pa447326322#4" lane="447326322#4_0" roadsideCapacity="25" length="5.00"/>
    <parkingArea id="pa447326323#0" lane="447326323#0_0" roadsideCapacity="22" length="5.00"/>
    <parkingArea id="pa447326323#1" lane="447326323#1_0" roadsideCapacity="2" length="5.00"/>
    <parkingArea id="pa447326496#0" lane="447326496#0_0" roadsideCapacity="8" length="5.00"/>
    <parkingArea id="pa447326496#1" lane="447326496#1_0" roadsideCapacity="3" length="5.00"/>
    <parkingArea id="pa447326496#2" lane="447326496#2_0" roadsideCapacity="16" length="5.00"/>
    <parkingArea id="pa447326496#3" lane="447326496#3_0" roadsideCapacity="4" length="5.00"/>
    <parkingArea id="pa447326496#4" lane="447326496#4_0" roadsideCapacity="14" length="5.00"/>
    <parkingArea id="pa447326496#5" lane="447326496#5_0" roadsideCapacity="19" length="5.00"/>
    <parkingArea id="pa535556337#3" lane="535556337#3_0" roadsideCapacity="1" length="5.00"/>
    <parkingArea id="pa535556337#5" lane="535556337#5_0" roadsideCapacity="1" length="5.00"/>
    <parkingArea id="pa535556338#0" lane="535556338#0_0" roadsideCapacity="11" length="5.00"/>
    <parkingArea id="pa535556338#1" lane="535556338#1_0" roadsideCapacity="3" length="5.00"/>
    <parkingArea id="pa535556339#1" lane="535556339#1_0" roadsideCapacity="3" length="5.00"/>
    <parkingArea id="pa535556339#2" lane="535556339#2_0" roadsideCapacity="1" length="5.00"/>
    <parkingArea id="pa535556339#3" lane="535556339#3_0" roadsideCapacity="7" length="5.00"/>
    <parkingArea id="pa535558320#0" lane="535558320#0_0" roadsideCapacity="2" length="5.00"/>
    <parkingArea id="pa535558320#1" lane="535558320#1_0" roadsideCapacity="9" length="5.00"/>
    <parkingArea id="pa535558320#10" lane="535558320#10_0" roadsideCapacity="7" length="5.00"/>
    <parkingArea id="pa535558320#2" lane="535558320#2_0" roadsideCapacity="5" length="5.00"/>
    <parkingArea id="pa535558320#5" lane="535558320#5_0" roadsideCapacity="3" length="5.00"/>
    <parkingArea id="pa535558320#6" lane="535558320#6_0" roadsideCapacity="1" length="5.00"/>
    <parkingArea id="pa535558320#8" lane="535558320#8_0" roadsideCapacity="7" length="5.00"/>
    <parkingArea id="pa535558320#9" lane="535558320#9_0" roadsideCapacity="41" length="5.00"/>
    <parkingArea id="pa535558321#0" lane="535558321#0_0" roadsideCapacity="2" length="5.00"/>
    <parkingArea id="pa535558321#1" lane="535558321#1_0" roadsideCapacity="23" length="5.00"/>
    <parkingArea id="pa535719980" lane="535719980_0" roadsideCapacity="3" length="5.00"/>
    <parkingArea id="pa535719981" lane="535719981_0" roadsideCapacity="1" length="5.00"/>
    <parkingArea id="pa535723603#1" lane="535723603#1_0" roadsideCapacity="1" length="5.00"/>
    <parkingArea id="pa535723603#3" lane="535723603#3_0" roadsideCapacity="1" length="5.00"/>
    <parkingArea id="pa535723606" lane="535723606_0" roadsideCapacity="3" length="5.00"/>
    <parkingArea id="pa535725903#0" lane="535725903#0_0" roadsideCapacity="31" length="5.00"/>
    <parkingArea id="pa537023654" lane="537023654_0" roadsideCapacity="5" length="5.00"/>
    <parkingArea id="pa537232373" lane="537232373_0" roadsideCapacity="33" length="5.00"/>
    <parkingArea id="pa537232374#0" lane="537232374#0_0" roadsideCapacity="22" length="5.00"/>
    <parkingArea id="pa537232374#1" lane="537232374#1_0" roadsideCapacity="11" length="5.00"/>
    <parkingArea id="pa537232374#2" lane="537232374#2_0" roadsideCapacity="23" length="5.00"/>
    <parkingArea id="pa537232375" lane="537232375_0" roadsideCapacity="14" length="5.00"/>
    <parkingArea id="pa537232376" lane="537232376_0" roadsideCapacity="13" length="5.00"/>
    <parkingArea id="pa537250021" lane="537250021_0" roadsideCapacity="1" length="5.00"/>
    <parkingArea id="pa537250022" lane="537250022_0" roadsideCapacity="1" length="5.00"/>
    <parkingArea id="pa538031522#0" lane="538031522#0_0" roadsideCapacity="29" length="5.00"/>
    <parkingArea id="pa538031522#1" lane="538031522#1_0" roadsideCapacity="6" length="5.00"/>
    <parkingArea id="pa562096883" lane="562096883_0" roadsideCapacity="1" length="5.00"/>
    <parkingArea id="pa563505734#0" lane="563505734#0_0" roadsideCapacity="8" length="5.00"/>
    <parkingArea id="pa563505734#1" lane="563505734#1_0" roadsideCapacity="19" length="5.00"/>
    <parkingArea id="pa563505766#1" lane="563505766#1_0" roadsideCapacity="22" length="5.00"/>
    <parkingArea id="pa563505767#1" lane="563505767#1_0" roadsideCapacity="37" length="5.00"/>
    <parkingArea id="pa563505768#1" lane="563505768#1_0" roadsideCapacity="11" length="5.00"/>
    <parkingArea id="pa563505768#2" lane="563505768#2_0" roadsideCapacity="5" length="5.00"/>
    <parkingArea id="pa563505769#1" lane="563505769#1_0" roadsideCapacity="6" length="5.00"/>
    <parkingArea id="pa563505769#10" lane="563505769#10_0" roadsideCapacity="2" length="5.00"/>
    <parkingArea id="pa563505769#13" lane="563505769#13_0" roadsideCapacity="12" length="5.00"/>
    <parkingArea id="pa563505769#15" lane="563505769#15_0" roadsideCapacity="5" length="5.00"/>
    <parkingArea id="pa563505769#18" lane="563505769#18_0" roadsideCapacity="4" length="5.00"/>
    <parkingArea id="pa563505769#2" lane="563505769#2_0" roadsideCapacity="12" length="5.00"/>
    <parkingArea id="pa563505769#20" lane="563505769#20_0" roadsideCapacity="12" length="5.00"/>
    <parkingArea id="pa563505769#3" lane="563505769#3_0" roadsideCapacity="9" length="5.00"/>
    <parkingArea id="pa563505769#4" lane="563505769#4_0" roadsideCapacity="4" length="5.00"/>
    <parkingArea id="pa563505769#5" lane="563505769#5_0" roadsideCapacity="4" length="5.00"/>
    <parkingArea id="pa563505769#8" lane="563505769#8_0" roadsideCapacity="5" length="5.00"/>
    <parkingArea id="pa563505769#9" lane="563505769#9_0" roadsideCapacity="10" length="5.00"/>
    <parkingArea id="pa664980266" lane="664980266_0" roadsideCapacity="8" length="5.00"/>
    <parkingArea id="pa665220625" lane="665220625_0" roadsideCapacity="6" length="5.00"/>
    <parkingArea id="pa665229944" lane="665229944_0" roadsideCapacity="1" length="5.00"/>
    <parkingArea id="pa69321368#1" lane="69321368#1_0" roadsideCapacity="3" length="5.00"/>
    <parkingArea id="pa69321368#2" lane="69321368#2_0" roadsideCapacity="59" length="5.00"/>
    <parkingArea id="pa69321368#3" lane="69321368#3_0" roadsideCapacity="5" length="5.00"/>
    <parkingArea id="pa693637326#1" lane="693637326#1_0" roadsideCapacity="11" length="5.00"/>
    <parkingArea id="pa693637327#2" lane="693637327#2_0" roadsideCapacity="3" length="5.00"/>
    <parkingArea id="pa693637397#0" lane="693637397#0_0" roadsideCapacity="7" length="5.00"/>
    <parkingArea id="pa693637397#1" lane="693637397#1_0" roadsideCapacity="7" length="5.00"/>
    <parkingArea id="pa693637403" lane="693637403_0" roadsideCapacity="10" length="5.00"/>
    <parkingArea id="pa693637406#10" lane="693637406#10_0" roadsideCapacity="4" length="5.00"/>
    <parkingArea id="pa693637406#11" lane="693637406#11_0" roadsideCapacity="3" length="5.00"/>
    <parkingArea id="pa693637406#12" lane="693637406#12_0" roadsideCapacity="13" length="5.00"/>
    <parkingArea id="pa693637406#13" lane="693637406#13_0" roadsideCapacity="8" length="5.00"/>
    <parkingArea id="pa693637406#15" lane="693637406#15_0" roadsideCapacity="2" length="5.00"/>
    <parkingArea id="pa693637406#16" lane="693637406#16_0" roadsideCapacity="9" length="5.00"/>
    <parkingArea id="pa693637406#3" lane="693637406#3_0" roadsideCapacity="8" length="5.00"/>
    <parkingArea id="pa693637406#7" lane="693637406#7_0" roadsideCapacity="15" length="5.00"/>
    <parkingArea id="pa70056689" lane="70056689_0" roadsideCapacity="8" length="5.00"/>
    <parkingArea id="pa70080981#0" lane="70080981#0_0" roadsideCapacity="24" length="5.00"/>
    <parkingArea id="pa70080981#1" lane="70080981#1_0" roadsideCapacity="25" length="5.00"/>
    <parkingArea id="pa70080981#2" lane="70080981#2_0" roadsideCapacity="15" length="5.00"/>
    <parkingArea id="pa70080981#3" lane="70080981#3_0" roadsideCapacity="5" length="5.00"/>
    <parkingArea id="pa70200195#0" lane="70200195#0_0" roadsideCapacity="10" length="5.00"/>
    <parkingArea id="pa70200195#1" lane="70200195#1_0" roadsideCapacity="2" length="5.00"/>
    <parkingArea id="pa70200197" lane="70200197_0" roadsideCapacity="5" length="5.00"/>
    <parkingArea id="pa72508571#0" lane="72508571#0_0" roadsideCapacity="17" length="5.00"/>
    <parkingArea id="pa72508571#1" lane="72508571#1_0" roadsideCapacity="24" length="5.00"/>