<?xml version="1.0" encoding="UTF-8"?>

<!-- generated on 2025-05-13 20:06:44.595773 by randomTrips.py UNKNOWN
<configuration>
    <net-file value="unicamp/osm.net.xml"/>
    <additional-files value="unicamp/park.add.xml"/>
    <output-trip-file value="unicamp/randtrips.trips.xml"/>
    <route-file value="unicamp/randtrips.rou.xml"/>
    <validate value="True"/>
    <end value="86400.0"/>
    <period value="900.0"/>
</configuration>
-->

<!-- generated on 2025-05-13 20:06:44 by Eclipse SUMO duarouter Version 1.22.0
<duarouterConfiguration xmlns:xsi="http://www.w3.org/2001/XMLSchema-instance" xsi:noNamespaceSchemaLocation="http://sumo.dlr.de/xsd/duarouterConfiguration.xsd">

    <input>
        <net-file value="unicamp/osm.net.xml"/>
        <additional-files value="unicamp/park.add.xml"/>
        <route-files value="unicamp/randtrips.trips.xml"/>
    </input>

    <output>
        <output-file value="unicamp/randtrips.trips.xml.tmp"/>
        <alternatives-output value="NUL"/>
        <write-trips value="true"/>
    </output>

    <time>
        <begin value="0"/>
        <end value="86400.0"/>
    </time>

    <report>
        <no-warnings value="true"/>
        <ignore-errors value="true"/>
        <no-step-log value="true"/>
    </report>

</duarouterConfiguration>
-->

<routes xmlns:xsi="http://www.w3.org/2001/XMLSchema-instance" xsi:noNamespaceSchemaLocation="http://sumo.dlr.de/xsd/routes_file.xsd">
    <trip id="0" depart="0.00" from="70200198#5" to="-147419826#0"/>
    <trip id="1" depart="900.00" from="-88141324#0" to="-77948759#0"/>
    <trip id="2" depart="1800.00" from="75416306#7" to="72644044#1"/>
    <trip id="3" depart="2700.00" from="85631065#2" to="-563505769#10"/>
    <trip id="4" depart="3600.00" from="386834059#5" to="-147419852#3"/>
    <trip id="5" depart="4500.00" from="-77781347#2" to="563505743#3"/>
    <trip id="6" depart="5400.00" from="-147419852#1" to="-75701376#4"/>
    <trip id="7" depart="6300.00" from="72508572#1" to="689691698#12"/>
    <trip id="8" depart="7200.00" from="-77783516#0" to="70056689#18"/>
    <trip id="9" depart="8100.00" from="77674942#2" to="-1130964472"/>
    <trip id="10" depart="9000.00" from="77674936#2" to="75259400#5"/>
    <trip id="11" depart="9900.00" from="147379112#1" to="-72644044#7"/>
    <trip id="12" depart="10800.00" from="890559137#1" to="147379114#1"/>
    <trip id="13" depart="11700.00" from="-563505769#4" to="-663357753"/>
    <trip id="14" depart="12600.00" from="77781346#0" to="70080980#3"/>
    <trip id="15" depart="13500.00" from="77674938#3" to="75416306#10"/>
    <trip id="16" depart="14400.00" from="564511809#1" to="890738229#4"/>
    <trip id="17" depart="15300.00" from="220996670#0" to="689691699#2"/>
    <trip id="18" depart="16200.00" from="77680543#4" to="70200195#12"/>
    <trip id="19" depart="17100.00" from="77873286#6" to="69416762#2"/>
    <trip id="20" depart="18000.00" from="75259402#2" to="-329703621#2"/>
    <trip id="21" depart="18900.00" from="-78684176#0" to="-89431163#0"/>
    <trip id="22" depart="19800.00" from="-563505758" to="-85631065#0"/>
    <trip id="23" depart="20700.00" from="-69012634#3" to="-889993133#1"/>
    <trip id="24" depart="21600.00" from="70200197#4" to="183876531#2"/>
    <trip id="25" depart="22500.00" from="183876531#0" to="-77680543#1"/>
    <trip id="26" depart="23400.00" from="-85701991" to="88141324#1"/>
    <trip id="27" depart="24300.00" from="72508571#1" to="70200192#2"/>
    <trip id="28" depart="25200.00" from="-75259400#5" to="75416306#1"/>
    <trip id="29" depart="26100.00" from="-72644726#0" to="237036477#15"/>
    <trip id="30" depart="27000.00" from="90743683#3" to="70200199#4"/>
    <trip id="31" depart="27900.00" from="69012634#2" to="72644721#4"/>
    <trip id="32" depart="28800.00" from="77781343#2" to="75701376#3"/>
    <trip id="33" depart="29700.00" from="-78684176#2" to="-179051712#3"/>
    <trip id="34" depart="30600.00" from="1046248579#1" to="-85701996#0"/>
    <trip id="35" depart="31500.00" from="-77680543#1" to="889993132#0"/>
    <trip id="36" depart="32400.00" from="77881557#6" to="1054468188#0"/>
    <trip id="37" depart="33300.00" from="72508573#3" to="278132384#1"/>
    <trip id="38" depart="34200.00" from="85701978#2" to="535558320#2"/>
    <trip id="39" depart="35100.00" from="-85701988#4" to="-85631072#9"/>
    <trip id="40" depart="36000.00" from="69321368#1" to="-85701988#4"/>
    <trip id="41" depart="36900.00" from="69830501#2" to="85631072#0"/>
    <trip id="42" depart="37800.00" from="269853395#0" to="-77783501#1"/>
    <trip id="43" depart="38700.00" from="970808982" to="563505751#2"/>
    <trip id="44" depart="39600.00" from="-563505769#2" to="-329703621#4"/>
    <trip id="45" depart="40500.00" from="-70056691#1" to="70200195#6"/>
    <trip id="46" depart="41400.00" from="77652221" to="386834060#8"/>
    <trip id="47" depart="42300.00" from="-533682528#6" to="237036477#19"/>
    <trip id="48" depart="43200.00" from="970642925" to="563505769#4"/>
    <trip id="50" depart="45000.00" from="-147379108#0" to="75413339#2"/>
    <trip id="51" depart="45900.00" from="72644044#4" to="627798939#0"/>
    <trip id="52" depart="46800.00" from="-85701991" to="70200199#6"/>
    <trip id="53" depart="47700.00" from="-70056694#1" to="447326050#1"/>
    <trip id="54" depart="48600.00" from="533682528#2" to="890076349#2"/>
    <trip id="55" depart="49500.00" from="77881557#5" to="-85701989"/>
    <trip id="56" depart="50400.00" from="563505739#0" to="-75259405#7"/>
    <trip id="58" depart="52200.00" from="-89530503#0" to="70200199#3"/>
    <trip id="59" depart="53100.00" from="70080980#6" to="-72644044#2"/>
    <trip id="60" depart="54000.00" from="75679335#4" to="664968457#0"/>
    <trip id="61" depart="54900.00" from="75701376#4" to="563505769#6"/>
    <trip id="62" depart="55800.00" from="-1046248579#0" to="1054468195#1"/>
    <trip id="63" depart="56700.00" from="-147412859#2" to="85701995#1"/>
    <trip id="64" depart="57600.00" from="77948714#1" to="77709899#0"/>
    <trip id="65" depart="58500.00" from="-970630999#0" to="-447326050#1"/>
    <trip id="66" depart="59400.00" from="77948714#0" to="890032153"/>
    <trip id="67" depart="60300.00" from="-563505766#1" to="539691353#7"/>
    <trip id="68" depart="61200.00" from="-539409504" to="75679335#5"/>
    <trip id="69" depart="62100.00" from="75679337#5" to="-70200197#4"/>
    <trip id="70" depart="63000.00" from="537232374#1" to="689691698#8"/>
    <trip id="72" depart="64800.00" from="386834060#0" to="-77781344"/>
    <trip id="73" depart="65700.00" from="564511814" to="75416306#11"/>
    <trip id="74" depart="66600.00" from="-75701376#5" to="1046248579#2"/>
    <trip id="75" depart="67500.00" from="970631000#3" to="72508573#12"/>
    <trip id="76" depart="68400.00" from="447326049#7" to="563505765#3"/>
    <trip id="77" depart="69300.00" from="-70200192#5" to="-77948763"/>
    <trip id="78" depart="70200.00" from="147379108#2" to="70056689#16"/>
    <trip id="79" depart="71100.00" from="-78684178#0" to="-77783516#0"/>
    <trip id="80" depart="72000.00" from="-539691352#2" to="70200197#2"/>
    <trip id="81" depart="72900.00" from="-78684176#2" to="85631074#0"/>
    <trip id="82" depart="73800.00" from="77873286#3" to="-563505734#0"/>
    <trip id="83" depart="74700.00" from="-85631065#6" to="72508821#0"/>
    <trip id="84" depart="75600.00" from="-77781345#1" to="-70200198#5"/>
    <trip id="85" depart="76500.00" from="85703442#1" to="693637406#16"/>
    <trip id="87" depart="78300.00" from="77674938#4" to="-75413336#2"/>
    <trip id="88" depart="79200.00" from="-663357753" to="447326049#4"/>
    <trip id="89" depart="80100.00" from="386834060#1" to="535725901#3"/>
    <trip id="90" depart="81000.00" from="75413342" to="72641085#0"/>
    <trip id="91" depart="81900.00" from="89530503#6" to="-664980454"/>
    <trip id="92" depart="82800.00" from="278132384#3" to="147379116#6"/>
    <trip id="93" depart="83700.00" from="77873286#6" to="-856607131#0"/>
    <trip id="94" depart="84600.00" from="-75413333#0" to="533682528#2"/>
    <trip id="95" depart="85500.00" from="386834059#5" to="-890076349#0"/>
</routes>
