<?xml version="1.0" encoding="UTF-8"?>

<!-- generated on 2024-11-29 15:29:34.233510 by randomTrips.py UNKNOWN
<configuration>
    <net-file value="osm.net.xml"/>
    <additional-files value="osm_stops.add.xml"/>
    <output-trip-file value="randtrips.trips.xml"/>
    <route-file value="randtrips.rou.xml"/>
    <vehicle-class value="passenger"/>
    <validate value="True"/>
    <end value="10.0"/>
</configuration>
-->

<!-- generated on 2024-11-29 15:29:34 by Eclipse SUMO duarouter Version 1.21.0
<duarouterConfiguration xmlns:xsi="http://www.w3.org/2001/XMLSchema-instance" xsi:noNamespaceSchemaLocation="http://sumo.dlr.de/xsd/duarouterConfiguration.xsd">

    <input>
        <net-file value="osm.net.xml"/>
        <additional-files value="osm_stops.add.xml"/>
        <route-files value="randtrips.trips.xml"/>
    </input>

    <output>
        <output-file value="randtrips.rou.xml"/>
        <alternatives-output value="NUL"/>
    </output>

    <time>
        <begin value="0"/>
        <end value="10.0"/>
    </time>

    <report>
        <no-warnings value="true"/>
        <ignore-errors value="true"/>
        <no-step-log value="true"/>
    </report>

</duarouterConfiguration>
-->

<routes xmlns:xsi="http://www.w3.org/2001/XMLSchema-instance" xsi:noNamespaceSchemaLocation="http://sumo.dlr.de/xsd/routes_file.xsd">
    <vType id="passenger" vClass="passenger"/>
    <vehicle id="0" type="passenger" depart="0.00">
        <route edges="70200198#5 -70200198#5 -70200198#4 -70200198#3 -70200198#2 -70200198#0 147379108#4 890586228 70056689#16 70056689#17 70056689#18 70056689#19 70056689#20 183876535#7 890063337#0 539685790#1 563505747#2 563505747#3 890020478#1 890076350 563505743#0 563505743#1 563505743#2 -147419826#2 -147419826#1 -147419826#0"/>
    </vehicle>
    <vehicle id="1" type="passenger" depart="1.00">
        <route edges="-88141324#0 -563505765#2 -563505765#1 -563505765#0 539414318 70080979#6 70080979#7 70080979#8 70080979#9 70080979#10 70080979#11 70080979#12 70080979#1 70080979#2 77781343#0 77781343#1 77781343#2 77781343#3 77781343#4 689691698#7 70056694#0 70056694#1 70056694#2 70056694#3 70056694#4 -70200192#3 -70200192#2 -70200192#1 -70200198#2 -70200198#0 147379108#4 890586228 70056689#16 70056689#17 70056689#18 70056689#19 70056689#20 183876535#7 890063337#0 539685790#1 563505747#2 563505747#3 890020478#1 890076350 563505743#0 563505743#1 563505743#2 -147419826#2 -147419826#1 -77948763 -77948759#0"/>
    </vehicle>
    <vehicle id="2" type="passenger" depart="2.00">
        <route edges="75416306#7 -72644044#7 -72644044#6 -72644044#5 -72644044#4 -72644044#3 -72644044#2 -72644044#1 72644044#1"/>
    </vehicle>
    <vehicle id="3" type="passenger" depart="3.00">
        <route edges="85631065#2 85631065#3 -85631074#0 85631072#4 85631072#5 69830501#2 69830501#3 69830501#4 69830501#5 69830501#6 70080979#10 70080979#11 70080979#12 70080979#1 70080979#2 77781343#0 77781343#1 77781343#2 77781343#3 77781343#4 689691698#7 689691698#8 689691698#9 689691698#10 689691698#11 689691698#12 689691698#13 689691698#14 -179051712#4 -179051712#3 -179051712#2 -179051712#1 -179051712#0 890556455#1 89478571#1 89478571#2 89478571#3 89478571#4 89478571#5 89478571#6 89478571#7 269853395#0 269853395#1 269853395#2 77670431#2 77670431#3 77670431#4 72508815#14 72508815#15 72508815#16 72508815#17 72508815#18 72508815#19 889992192 72508815#0 72508815#1 72508815#2 75679335#1 -563505769#10"/>
    </vehicle>
    <vehicle id="4" type="passenger" depart="4.00">
        <route edges="386834059#5 386834059#7 841305892 535558322#0 535558322#1 535558320#0 535558320#1 535558320#2 535558320#3 535558320#4 535558320#5 535558320#6 535558320#7 535558320#8 535558320#9 535558320#10 447326318 72508818 -447326319#4 -447326319#3 -447326319#2 -447326319#1 -447326319#0 183876531#0 183876531#1 183876531#2 183876531#3 183876531#4 183876531#6 183876531#7 75679292#2 890559265#0 890559265#1 890559265#2 890559265#3 75679284#0 75679284#1 693637327#1 693637327#2 889999537#0 889999537#1 89478571#1 70056689#0 70056689#1 70056689#2 70056689#3 70056689#4 70056689#5 70056689#6 70056689#7 70056689#8 70056689#9 70056689#10 70056689#11 70056689#12 70056689#13 70056689#14 70056689#16 70056689#17 70056689#18 70056689#19 890063336#2 890063336#3 890063336#4 890063336#5 85701995#1 85701995#2 85701995#3 69416763#0 69416763#1 147419852#0 147419852#1 147419852#2 147419852#3 -147419852#3"/>
    </vehicle>
    <vehicle id="5" type="passenger" depart="5.00">
        <route edges="-77781347#2 -77781347#1 77781343#4 689691698#7 70056694#0 70056694#1 70056694#2 70056694#3 70056694#4 -70200192#3 -70200192#2 -70200192#1 -70200198#2 -70200198#0 147379108#4 890586228 70056689#16 70056689#17 70056689#18 70056689#19 70056689#20 183876535#7 890063337#0 539685790#1 563505747#2 563505747#3 890020478#1 890076350 563505743#0 563505743#1 563505743#2 563505743#3"/>
    </vehicle>
    <vehicle id="6" type="passenger" depart="6.00">
        <route edges="-147419852#1 -147419852#0 85701991 85701990#0 85701990#1 430268897 183876535#5 183876535#7 70200195#2 70200195#3 70200195#4 890015553 691836138#1 75259402#0 75259402#1 75259402#2 -72644721#7 -72644721#6 -72644721#5 -72644721#4 -72644721#3 -72644721#2 -72644721#1 -72644721#0 89478572#3 89478572#4 89478572#5 89478572#6 89478572#7 75679299#0 75679299#1 693637403 693637406#1 693637406#2 693637406#3 77674938#2 77674938#3 77674938#4 538031522#0 538031522#1 769466394#5 769466394#7 769466394#8 769466394#10 952984038#0 952984038#1 952984038#2 -75701376#7 -75701376#6 -75701376#5 -75701376#4"/>
    </vehicle>
    <vehicle id="7" type="passenger" depart="7.00">
        <route edges="72508572#1 -72508572#1 -72508572#0 890681699#1 890593765 689691698#11 689691698#12"/>
    </vehicle>
    <vehicle id="8" type="passenger" depart="8.00">
        <route edges="-77783516#0 70080979#2 77781343#0 77781343#1 77781343#2 77781343#3 77781343#4 689691698#7 70056694#0 70056694#1 70056694#2 70056694#3 70056694#4 -70200192#3 -70200192#2 -70200192#1 -70200198#2 -70200198#0 147379108#4 890586228 70056689#16 70056689#17 70056689#18"/>
    </vehicle>
    <vehicle id="9" type="passenger" depart="9.00">
        <route edges="77674942#2 77674942#3 FEEC 693637406#10 693637406#11 693637406#12 693637406#13 693637406#14 693637406#15 693637406#16 906065938 1013410331 329703619#0 329703619#2 537250022 329703620#2 329703621#0 329703621#1 329703621#2 329703621#3 329703621#4 329703621#5 329703621#6 329703621#7 -1130964472"/>
    </vehicle>
</routes>
