<?xml version="1.0" encoding="UTF-8"?>

<!-- generated on 2025-06-13 11:07:14.899546 by randomTrips.py UNKNOWN
<configuration>
    <net-file value="unicamp/osm.net.xml"/>
    <route-file value="unicamp/randtrips_pedestrians.rou.xml"/>
    <pedestrians value="True"/>
    <validate value="True"/>
    <end value="864000.0"/>
    <period value="10.0"/>
</configuration>
-->

<!-- generated on 2025-06-13 11:07:12 by Eclipse SUMO duarouter Version 1.23.1
<duarouterConfiguration xmlns:xsi="http://www.w3.org/2001/XMLSchema-instance" xsi:noNamespaceSchemaLocation="http://sumo.dlr.de/xsd/duarouterConfiguration.xsd">

    <input>
        <net-file value="unicamp/osm.net.xml"/>
        <route-files value="trips.trips.xml"/>
    </input>

    <output>
        <output-file value="unicamp/randtrips_pedestrians.rou.xml"/>
        <alternatives-output value="NUL"/>
    </output>

    <time>
        <begin value="0"/>
        <end value="864000.0"/>
    </time>

    <report>
        <no-warnings value="true"/>
        <ignore-errors value="true"/>
        <no-step-log value="true"/>
    </report>

</duarouterConfiguration>
-->

<routes xmlns:xsi="http://www.w3.org/2001/XMLSchema-instance" xsi:noNamespaceSchemaLocation="http://sumo.dlr.de/xsd/routes_file.xsd">
    <person id="170" depart="1700.00">
        <walk edges="841330477#1 -841330477#0 762314423#1 841330473#1 -841330473#2"/>
    </person>
    <person id="332" depart="3320.00">
        <walk edges="834653992 -537025691#0 -537025691#1 -537025691#2 -537025691#3 537025691#5"/>
    </person>
    <person id="333" depart="3330.00">
        <walk edges="841330472#0 -841330471"/>
    </person>
    <person id="339" depart="3390.00">
        <walk edges="-834865320#0 834865320#1 834865326#2 -834865326#1 834865325 -834865321 -834865323#1"/>
    </person>
    <person id="382" depart="3820.00">
        <walk edges="278132384#2 970567047"/>
    </person>
    <person id="401" depart="4010.00">
        <walk edges="470718570#2 470718563#1 470718563#0 983088351"/>
    </person>
    <person id="449" depart="4490.00">
        <walk edges="470718564#11 470718570#0 470718571#0 470718571#1 470718571#2 470718564#4"/>
    </person>
    <person id="524" depart="5240.00">
        <walk edges="970642827#1 -1046248580#4 -1046248581 -1046248582 -1247360485#0"/>
    </person>
    <person id="565" depart="5650.00">
        <walk edges="566854865 -890763403"/>
    </person>
    <person id="594" depart="5940.00">
        <walk edges="470718564#6 470718564#5 470718564#4 470718564#3 470718564#2"/>
    </person>
    <person id="608" depart="6080.00">
        <walk edges="849764501#3 -849764501#2 849764501#1 -849764501#0 -152073613#2 -152073613#1 -849764496#0"/>
    </person>
    <person id="654" depart="6540.00">
        <walk edges="-970810519 -970810520#1"/>
    </person>
    <person id="710" depart="7100.00">
        <walk edges="1294814203#1 1294814204#1 1294814204#0 1294814189#0 1294814188#0 1294814191#1 1294814191#0 1294814183#1 1294814184 1294814185"/>
    </person>
    <person id="719" depart="7190.00">
        <walk edges="263805188#0 -152073613#3 849764501#0"/>
    </person>
    <person id="771" depart="7710.00">
        <walk edges="-970796647 -410036319#3 -410036317#0"/>
    </person>
    <person id="827" depart="8270.00">
        <walk edges="1294814191#0 1294814183#0 1294814178#2 1294814178#1 1294814180 1294814176#1 1294814176#0 1294814175#1"/>
    </person>
    <person id="892" depart="8920.00">
        <walk edges="-890025929#1 -890025928#3 -890025927#0 -890025927#1"/>
    </person>
    <person id="1033" depart="10330.00">
        <walk edges="1294814189#1 1294814189#2 1294814187#1 1294814187#0 1294814174#1"/>
    </person>
    <person id="1079" depart="10790.00">
        <walk edges="410286706#0 410286706#1 -890559141#2 889442433"/>
    </person>
    <person id="1166" depart="11660.00">
        <walk edges="1294814188#0 1294814189#0 1294814196"/>
    </person>
    <person id="1167" depart="11670.00">
        <walk edges="470718565#3 470718567#0 470718567#1 470718568 470718564#5"/>
    </person>
    <person id="1219" depart="12190.00">
        <walk edges="77873372#1 -890025930 -890025931"/>
    </person>
    <person id="1234" depart="12340.00">
        <walk edges="-849764496#1 -849764496#0 -152073613#1 -152073613#2 -849764501#0 849764498"/>
    </person>
    <person id="1238" depart="12380.00">
        <walk edges="-834865315"/>
    </person>
    <person id="1259" depart="12590.00">
        <walk edges="691835090#2 691835089"/>
    </person>
    <person id="1307" depart="13070.00">
        <walk edges="1294814195#1 1294814194 1294814187#1"/>
    </person>
    <person id="1364" depart="13640.00">
        <walk edges="970796646#1 -970796646#0 -890646705#2 410036316#3 410036317#0 -410036319#3 -410036319#4"/>
    </person>
    <person id="1456" depart="14560.00">
        <walk edges="410036320#0 410036320#1 -970568633 476312864#0 652202159 476312863#1 -410036319#0 -410036319#1 -410036319#3 -410036319#4 410036319#5"/>
    </person>
    <person id="1481" depart="14810.00">
        <walk edges="970796640#0"/>
    </person>
    <person id="1489" depart="14890.00">
        <walk edges="-566854865 890744563#0"/>
    </person>
    <person id="1495" depart="14950.00">
        <walk edges="-1046248580#0 -1046248580#1 -1069624741 -691835090#1 1046248581"/>
    </person>
    <person id="1516" depart="15160.00">
        <walk edges="-849764496#2 -849764496#1 -849764496#0 -152073613#1 -152073613#2 -152073613#3"/>
    </person>
    <person id="1595" depart="15950.00">
        <walk edges="-563505733 -563505732#1 -890750029 890763406"/>
    </person>
    <person id="1660" depart="16600.00">
        <walk edges="-537025695#2 -537025695#3 537025699"/>
    </person>
    <person id="1718" depart="17180.00">
        <walk edges="537114949 -537114947#2 890567469#0"/>
    </person>
    <person id="1759" depart="17590.00">
        <walk edges="-537025697 537025691#1"/>
    </person>
    <person id="1874" depart="18740.00">
        <walk edges="970810522 890646704 -834865323#2 834865322"/>
    </person>
    <person id="1909" depart="19090.00">
        <walk edges="889178260 -889178261 889178259"/>
    </person>
    <person id="1955" depart="19550.00">
        <walk edges="118339286 118339277#8 118339213#2 118339213#1 118339243"/>
    </person>
    <person id="1959" depart="19590.00">
        <walk edges="886955276#1 -886955276#0 829471627#0 -886955285#0 -886955285#1 -886955284"/>
    </person>
    <person id="2090" depart="20900.00">
        <walk edges="537025698 -537025691#1 -537025691#0 834653992"/>
    </person>
    <person id="2120" depart="21200.00">
        <walk edges="973937899 -535723605#2 535723605#1 -535723605#0 887737022"/>
    </person>
    <person id="2196" depart="21960.00">
        <walk edges="-152073613#3 -152073613#2 -152073613#1 152073613#0"/>
    </person>
    <person id="2266" depart="22660.00">
        <walk edges="-410036320#1 -410036320#2 -970568634 -970568636#0 970568635"/>
    </person>
    <person id="2307" depart="23070.00">
        <walk edges="-849764493#0 -849764494 -849764496#1 -849764496#0 -152073613#1 -152073613#2 -849764501#0 849764501#1 -849764501#2 -849764501#3 849764499"/>
    </person>
    <person id="2342" depart="23420.00">
        <walk edges="-970796648 -410036319#4 -410036319#3 410036317#0 410036316#3 410036316#2 -410036320#3 -970568634 970568636#2 -970568635"/>
    </person>
    <person id="2365" depart="23650.00">
        <walk edges="-1054468205 1054468203 1054468199#1 1054468199#0"/>
    </person>
    <person id="2461" depart="24610.00">
        <walk edges="-664950508#0 664950501#1"/>
    </person>
    <person id="2491" depart="24910.00">
        <walk edges="1294814204#0 1294814204#1 1294814203#0 1294814202"/>
    </person>
    <person id="2580" depart="25800.00">
        <walk edges="118339277#9 -118339286 -118339261#2 118339259"/>
    </person>
    <person id="2655" depart="26550.00">
        <walk edges="970821575#2"/>
    </person>
    <person id="2714" depart="27140.00">
        <walk edges="-834865332#0 -890653329 -889486573 -889486572"/>
    </person>
    <person id="2886" depart="28860.00">
        <walk edges="410036317#1 -410036319#1 -410036319#0"/>
    </person>
    <person id="3017" depart="30170.00">
        <walk edges="1294814203#0 1294814204#1 1294814204#0 1294814189#0 1294814188#0 1294814188#1 1294814178#2 1294814212"/>
    </person>
    <person id="3025" depart="30250.00">
        <walk edges="-970796644 -970796646#2 -970796646#1 -970796646#0 -890646705#2 410036316#3 410036317#0 -410036319#1 -410036319#0 476312863#1 652202159 652202158"/>
    </person>
    <person id="3226" depart="32260.00">
        <walk edges="118339236 118339277#3 118339277#4 118339277#5 118339277#6 118339277#7 118339277#8 118339277#9 118339277#10 -118339215"/>
    </person>
    <person id="3305" depart="33050.00">
        <walk edges="470718570#0 470718565#1 470718569 470718567#1 470718567#2"/>
    </person>
    <person id="3324" depart="33240.00">
        <walk edges="-410036320#1 -410036320#2 -410036320#3 410036316#2 -890646705#2 -970796646#0 -970796646#1 -970796646#2 970796644"/>
    </person>
    <person id="3343" depart="33430.00">
        <walk edges="562096869#0 -562096869#1"/>
    </person>
    <person id="3394" depart="33940.00">
        <walk edges="1270062931#2 1270062931#1 1270062931#0"/>
    </person>
    <person id="3526" depart="35260.00">
        <walk edges="890763406 890750029"/>
    </person>
    <person id="3535" depart="35350.00">
        <walk edges="118339277#0 118339277#1 -118339209 118339220#1"/>
    </person>
    <person id="3539" depart="35390.00">
        <walk edges="-849737936 561659487#1 1054483082"/>
    </person>
    <person id="3607" depart="36070.00">
        <walk edges="561135428 -914374547 -971814670#0 -691835090#2 -1046248581 -1046248580#3 -1046248580#2"/>
    </person>
    <person id="3634" depart="36340.00">
        <walk edges="410036320#2 -970568633 476312864#0 652202159 476312863#1 -410036319#0 -410036319#1 -410036317#1"/>
    </person>
    <person id="3776" depart="37760.00">
        <walk edges="973937902#0 973937902#1"/>
    </person>
    <person id="3785" depart="37850.00">
        <walk edges="-841330473#1 762314423#1"/>
    </person>
    <person id="3876" depart="38760.00">
        <walk edges="970568633 476312864#0 652202159 476312863#1 -973429476"/>
    </person>
    <person id="3894" depart="38940.00">
        <walk edges="-834865330 834865332#1 834865332#0 -890653329"/>
    </person>
    <person id="3950" depart="39500.00">
        <walk edges="118339277#2 118339277#3 118339277#4 118339277#5 118339277#6 118339239"/>
    </person>
    <person id="4034" depart="40340.00">
        <walk edges="537025696 -537025691#0"/>
    </person>
    <person id="4065" depart="40650.00">
        <walk edges="-537025695#1 -537025695#2 -537025695#3 -537025695#4"/>
    </person>
    <person id="4230" depart="42300.00">
        <walk edges="562047784#3 -562047785 -562047784#1 890646704"/>
    </person>
    <person id="4283" depart="42830.00">
        <walk edges="-849773973#1 849773973#1"/>
    </person>
    <person id="4290" depart="42900.00">
        <walk edges="973429476 -410036319#0 -410036319#1 410036317#0 410036316#3 410036316#2 -410036320#3 970568634"/>
    </person>
    <person id="4295" depart="42950.00">
        <walk edges="-970642827#2 -971814670#0 -691835090#2 -1046248582 1247360485#1"/>
    </person>
    <person id="4348" depart="43480.00">
        <walk edges="970567047 -278132384#3 278132384#6 -886955296"/>
    </person>
    <person id="4350" depart="43500.00">
        <walk edges="-850123266 850123267#2"/>
    </person>
    <person id="4378" depart="43780.00">
        <walk edges="-410036319#5 -410036319#4 -410036319#3 410036317#0 410036316#3 410036316#2 -410036320#3"/>
    </person>
    <person id="4409" depart="44090.00">
        <walk edges="95015375#4 95015374#0"/>
    </person>
    <person id="4440" depart="44400.00">
        <walk edges="410036317#0 -410036319#3 -410036319#4 970796648"/>
    </person>
    <person id="4481" depart="44810.00">
        <walk edges="-535723605#0 535723605#1 -535723605#2 -535723605#3 535723605#4 535723605#5"/>
    </person>
    <person id="4589" depart="45890.00">
        <walk edges="-970796648 -410036319#4 -410036319#3 410036317#0 410036316#3 -890646705#2 -970796646#0 -970796646#1 970796645"/>
    </person>
    <person id="4609" depart="46090.00">
        <walk edges="970567047 -278132384#2 -278132384#1 697010966 -537228182#0 -537228182#1 -537228182#2"/>
    </person>
    <person id="4621" depart="46210.00">
        <walk edges="-886955285#0 -886955285#1 886955285#2"/>
    </person>
    <person id="4765" depart="47650.00">
        <walk edges="476312122#1 476312122#2 1294814190 1294814195#0 1294814195#1 1294814195#2 1294814189#1 1294814204#0 1294814204#1"/>
    </person>
    <person id="4770" depart="47700.00">
        <walk edges="-970810520#2 970810520#2"/>
    </person>
    <person id="4780" depart="47800.00">
        <walk edges="-886955285#2 -886955285#3 -886955285#4 829471627#2 970567046"/>
    </person>
    <person id="4881" depart="48810.00">
        <walk edges="410036317#1 -410036319#3 -410036319#4 970796648"/>
    </person>
    <person id="4945" depart="49450.00">
        <walk edges="970796646#3 -970796646#2 -970796646#1 -970796646#0 -890646705#2 410036316#3 410036317#0 -410036319#3 -410036319#4 -970796648"/>
    </person>
    <person id="5036" depart="50360.00">
        <walk edges="-841169544 -664950508#1 664950503"/>
    </person>
    <person id="5441" depart="54410.00">
        <walk edges="878548229 -118339259 -118339261#2"/>
    </person>
    <person id="5450" depart="54500.00">
        <walk edges="118339277#8 118339277#7 -118339239 -118339225#2"/>
    </person>
    <person id="5478" depart="54780.00">
        <walk edges="970810514 890744565#1 -890744564 -890744563#0 -566854865 -890763404"/>
    </person>
    <person id="5482" depart="54820.00">
        <walk edges="890646705#1 -890646705#2"/>
    </person>
    <person id="5569" depart="55690.00">
        <walk edges="1056251995#3 -1056251995#2 -1056251995#1 -1056251995#0"/>
    </person>
    <person id="5586" depart="55860.00">
        <walk edges="410036319#3 410036317#0 410036316#3 -890646705#2 -970796646#0 -970796646#1 -970796646#2 -970796644 -970796646#3"/>
    </person>
    <person id="5620" depart="56200.00">
        <walk edges="691835090#1 -1069624741 -1046248580#2 -1046248580#3 -1046248580#4 970642827#1"/>
    </person>
    <person id="5704" depart="57040.00">
        <walk edges="118339259 -118339261#2 -118339286"/>
    </person>
    <person id="5710" depart="57100.00">
        <walk edges="470718570#0 470718564#10 470718565#4"/>
    </person>
    <person id="5717" depart="57170.00">
        <walk edges="470718563#1 470718564#11 470718564#10 470718564#9 470718566"/>
    </person>
    <person id="5742" depart="57420.00">
        <walk edges="-562096869#0 562096869#0 -890593393 -890593394 -562096870#1"/>
    </person>
    <person id="5789" depart="57890.00">
        <walk edges="118339277#9 118339277#8 118339277#7 118339277#6 118339277#5 118339277#4 118339277#3 118339277#2 118339277#1 118339277#0"/>
    </person>
    <person id="5799" depart="57990.00">
        <walk edges="841330479#4 841330479#5 841330469 -841330477#0 762314423#1 841330471"/>
    </person>
    <person id="5877" depart="58770.00">
        <walk edges="-973906928#1 -973906928#2 -535556336#1 535556336#1"/>
    </person>
    <person id="5972" depart="59720.00">
        <walk edges="973429470#2 -973429470#1 -973937902#0"/>
    </person>
    <person id="6008" depart="60080.00">
        <walk edges="-1069624741 -1046248580#2 -1046248580#3 -1046248580#4 970642827#2"/>
    </person>
    <person id="6027" depart="60270.00">
        <walk edges="-691835090#1 -1069624741 -1046248580#1 1046248580#0"/>
    </person>
    <person id="6098" depart="60980.00">
        <walk edges="-664950508#0 -664950508#1 -664950508#2 -664950508#3"/>
    </person>
    <person id="6110" depart="61100.00">
        <walk edges="-970796640#1 970796640#1 76845625#2 76845625#1 76845625#0"/>
    </person>
    <person id="6156" depart="61560.00">
        <walk edges="834862853#1"/>
    </person>
    <person id="6176" depart="61760.00">
        <walk edges="-849764500#0 849764501#1"/>
    </person>
    <person id="6208" depart="62080.00">
        <walk edges="849764494 -849764496#1 -849764496#0 -152073613#1 -152073613#2 -849764501#0 -849764501#1"/>
    </person>
    <person id="6231" depart="62310.00">
        <walk edges="-973937901 -410036319#3 -410036319#4 410036319#5"/>
    </person>
    <person id="6342" depart="63420.00">
        <walk edges="849764498 -849764501#0 -152073613#2 -152073613#1 -849764496#0 -849764496#1 849764494"/>
    </person>
    <person id="6385" depart="63850.00">
        <walk edges="562047791#1 -562047791#0 -562047790#2 562047790#3"/>
    </person>
    <person id="6393" depart="63930.00">
        <walk edges="118339277#4 118339277#3 118339277#2 118339277#1"/>
    </person>
    <person id="6401" depart="64010.00">
        <walk edges="1056251991#2 -1056251991#1 1056251993#0 -1056251992#0"/>
    </person>
    <person id="6472" depart="64720.00">
        <walk edges="278132384#3 278132384#2 -278132384#1 697010966 -537228182#0 -537228182#1 -537228185 -537228183#2 537228183#3"/>
    </person>
    <person id="6528" depart="65280.00">
        <walk edges="664950508#5"/>
    </person>
    <person id="6678" depart="66780.00">
        <walk edges="-691835090#0 1069624741"/>
    </person>
    <person id="6728" depart="67280.00">
        <walk edges="95015351#1 95015351#3"/>
    </person>
    <person id="6855" depart="68550.00">
        <walk edges="1294814178#1 1294814180 1294814176#1 1294814176#0"/>
    </person>
    <person id="6864" depart="68640.00">
        <walk edges="841330472#0 841330473#1 762314423#1"/>
    </person>
    <person id="6946" depart="69460.00">
        <walk edges="-537025691#2 -537025691#1"/>
    </person>
    <person id="6974" depart="69740.00">
        <walk edges="849764495 -849764493#1 -849764494"/>
    </person>
    <person id="7014" depart="70140.00">
        <walk edges="537025696 -537025695#1 -537025695#2 -537025695#3 537025695#4"/>
    </person>
    <person id="7258" depart="72580.00">
        <walk edges="564166313#1 564166315#0 -564166312#2"/>
    </person>
    <person id="7259" depart="72590.00">
        <walk edges="664950504"/>
    </person>
    <person id="7309" depart="73090.00">
        <walk edges="-890025928#3 -890025931"/>
    </person>
    <person id="7538" depart="75380.00">
        <walk edges="850123267#2"/>
    </person>
    <person id="7607" depart="76070.00">
        <walk edges="-841330476 1314910911 841330479#5 841330469 -841330477#0 762314423#1 762314423#2"/>
    </person>
    <person id="7654" depart="76540.00">
        <walk edges="537026932#1 -889178260"/>
    </person>
    <person id="7664" depart="76640.00">
        <walk edges="762314423#2 841330473#1 841330472#0"/>
    </person>
    <person id="7734" depart="77340.00">
        <walk edges="-562047752 562047752 -886955295 886955296"/>
    </person>
    <person id="7738" depart="77380.00">
        <walk edges="849764496#3"/>
    </person>
    <person id="7782" depart="77820.00">
        <walk edges="692055286 -692055285#1"/>
    </person>
    <person id="7838" depart="78380.00">
        <walk edges="1294814204#0 1294814189#1 1294814195#2 1294814195#1 1294814195#0 1294814190 476312122#2 1294814174#2"/>
    </person>
    <person id="7851" depart="78510.00">
        <walk edges="1294814195#2 1294814189#2 1294814187#2 1294814188#0 1294814191#1 1294814191#0 1294814183#1"/>
    </person>
    <person id="7859" depart="78590.00">
        <walk edges="834862848 -834862846"/>
    </person>
    <person id="7945" depart="79450.00">
        <walk edges="973937902#0 -973429470#1"/>
    </person>
    <person id="7973" depart="79730.00">
        <walk edges="1294814212 1294814178#2 1294814188#1 1294814188#0 1294814189#0 1294814204#0 1294814205"/>
    </person>
    <person id="8025" depart="80250.00">
        <walk edges="-118339209 118339277#2 118339277#3 118339277#4 118339277#5 118339277#6 118339277#7 118339277#8"/>
    </person>
    <person id="8045" depart="80450.00">
        <walk edges="890763404 -566854865 -890744563#0 -890744564"/>
    </person>
    <person id="8095" depart="80950.00">
        <walk edges="1294814213 1294814212 1294814178#1 1294814180 1294814177"/>
    </person>
    <person id="8198" depart="81980.00">
        <walk edges="1294814214 1294814213 1294814212 1294814178#2 1294814188#1 1294814188#0 1294814187#2 1294814187#1 1294814194 1294814195#0"/>
    </person>
    <person id="8251" depart="82510.00">
        <walk edges="841330473#3 -841330473#2 841330473#1 762314423#1 -841330477#0"/>
    </person>
    <person id="8309" depart="83090.00">
        <walk edges="1046248581 -1046248580#4 970642827#1 -1055420368"/>
    </person>
    <person id="8335" depart="83350.00">
        <walk edges="-537025695#0 -537025696"/>
    </person>
    <person id="8371" depart="83710.00">
        <walk edges="118339270#1 -118339270#0 118339277#9 -118339286 -118339261#2 118339261#1"/>
    </person>
    <person id="8440" depart="84400.00">
        <walk edges="849764493#2 -849764495 -849764496#2 -849764496#1 -849764496#0 -152073613#1 -152073613#2 -849764501#0 849764498"/>
    </person>
    <person id="8496" depart="84960.00">
        <walk edges="664950508#5 -664950508#6"/>
    </person>
    <person id="8551" depart="85510.00">
        <walk edges="564166315#1 562047790#1 -562047791#0"/>
    </person>
    <person id="8578" depart="85780.00">
        <walk edges="118339277#10 118339277#9 118339277#8 118339277#7 118339277#6 118339277#5 118339277#4 118339277#3 118339277#2"/>
    </person>
    <person id="8601" depart="86010.00">
        <walk edges="152073613#0 -849764496#0 849764496#1"/>
    </person>
    <person id="8637" depart="86370.00">
        <walk edges="841330474 841330479#4 841330479#5 841330479#6 970567107 -841330478"/>
    </person>
    <person id="8658" depart="86580.00">
        <walk edges="886955288#1 886955289"/>
    </person>
    <person id="8698" depart="86980.00">
        <walk edges="849764501#3 -849764501#2 849764501#1 -849764501#0 -152073613#2 -152073613#1 -849764496#0 -849764496#1 849764496#2"/>
    </person>
    <person id="8784" depart="87840.00">
        <walk edges="-75701369"/>
    </person>
    <person id="8785" depart="87850.00">
        <walk edges="537114950 890567469#1 537114947#1 -537114947#2 -970796651 -970796652#1"/>
    </person>
    <person id="8787" depart="87870.00">
        <walk edges="-664950502 -664950508#0 -664950508#1 -664950508#2 -664950508#3 -664950508#4 -664950508#5 -664950508#6 664950508#7"/>
    </person>
    <person id="8800" depart="88000.00">
        <walk edges="563505731 890763406"/>
    </person>
    <person id="8802" depart="88020.00">
        <walk edges="-841330471 -841330473#1"/>
    </person>
    <person id="8829" depart="88290.00">
        <walk edges="973937901 410036316#0 410036316#3 -890646705#2 -970796646#0 -970796646#1 -970796645 -970796646#4"/>
    </person>
    <person id="8882" depart="88820.00">
        <walk edges="-535723605#3 535723605#4"/>
    </person>
    <person id="8916" depart="89160.00">
        <walk edges="118339294#0 -118339268"/>
    </person>
    <person id="9100" depart="91000.00">
        <walk edges="1294814178#0 1294814178#1 1294814178#2 1294814188#1 1294814188#0 1294814187#2 1294814189#2 1294814195#2"/>
    </person>
    <person id="9301" depart="93010.00">
        <walk edges="970810510#1 -970810510#1"/>
    </person>
    <person id="9319" depart="93190.00">
        <walk edges="410036317#0 410036316#3 410036316#2 -410036320#3 970568634"/>
    </person>
    <person id="9345" depart="93450.00">
        <walk edges="970568636#0 -970568634 -410036320#3 410036316#2 410036316#3 410036317#0 -410036319#3"/>
    </person>
    <person id="9402" depart="94020.00">
        <walk edges="470718570#3 470718564#2 470718564#3 470718564#4 470718564#5 470718564#6"/>
    </person>
    <person id="9438" depart="94380.00">
        <walk edges="841330471 762314423#1 841330477#0"/>
    </person>
    <person id="9445" depart="94450.00">
        <walk edges="887728298 -537282075#1"/>
    </person>
    <person id="9479" depart="94790.00">
        <walk edges="-410036320#0 410036320#1 -410036320#2 -410036320#3 410036316#2 -890646705#2 -970796646#0"/>
    </person>
    <person id="9608" depart="96080.00">
        <walk edges="-118339259 -118339261#2 -118339286 118339277#8 118339277#7 118339277#6 -118339214 118339225#0"/>
    </person>
    <person id="9629" depart="96290.00">
        <walk edges="77674932#1 -562047772"/>
    </person>
    <person id="9652" depart="96520.00">
        <walk edges="1069624742 -1046248580#3 -1046248581 -1046248582 1247360485#1"/>
    </person>
    <person id="9721" depart="97210.00">
        <walk edges="-970617344 970617344 -849764501#2 849764501#1 -849764498"/>
    </person>
    <person id="9758" depart="97580.00">
        <walk edges="118339261#3 -118339286 118339277#8 118339277#7 118339277#6 118339277#5 118339277#4 -118339220#2"/>
    </person>
    <person id="9767" depart="97670.00">
        <walk edges="762314423#4 762314423#3 -841330471 762314423#1 -841330477#0 -841330469"/>
    </person>
    <person id="9783" depart="97830.00">
        <walk edges="1056699611 -583398625#0"/>
    </person>
    <person id="9802" depart="98020.00">
        <walk edges="1294814187#2 1294814188#0 1294814188#1 1294814178#2 1294814178#1 1294814180 1294814176#1"/>
    </person>
    <person id="9806" depart="98060.00">
        <walk edges="-890763401#1"/>
    </person>
    <person id="9838" depart="98380.00">
        <walk edges="-1046248581 -1046248580#4 970642827#2"/>
    </person>
    <person id="9866" depart="98660.00">
        <walk edges="583398625#3 -583398625#2 -583398625#1 -1056699611"/>
    </person>
    <person id="10011" depart="100110.00">
        <walk edges="829471627#0 -886955285#0 886955283"/>
    </person>
    <person id="10107" depart="101070.00">
        <walk edges="537025695#4 537025699"/>
    </person>
    <person id="10321" depart="103210.00">
        <walk edges="834653994"/>
    </person>
    <person id="10382" depart="103820.00">
        <walk edges="-562047791#1 -944532269 -562047791#0 562047790#1 564166315#1 564166315#0 -564166312#0"/>
    </person>
    <person id="10413" depart="104130.00">
        <walk edges="1056251996#1 1056251994#1 -1056251994#0"/>
    </person>
    <person id="10435" depart="104350.00">
        <walk edges="1294814175#0 1294814174#1 1294814187#0 1294814194 1294814195#1"/>
    </person>
    <person id="10500" depart="105000.00">
        <walk edges="970810522 890646704 834865323#2"/>
    </person>
    <person id="10518" depart="105180.00">
        <walk edges="1056251994#1 -1056251995#1 -1056251992#2 -1056251991#1 -1056251991#0"/>
    </person>
    <person id="10664" depart="106640.00">
        <walk edges="1056251990#1 -1056251992#0 1056251993#0 -1056251991#1 -1056251992#2 1056251995#1"/>
    </person>
    <person id="10726" depart="107260.00">
        <walk edges="-849764496#0 -152073613#1 -152073613#2 -849764501#0 849764501#1 -849764501#2 970617344"/>
    </person>
    <person id="10733" depart="107330.00">
        <walk edges="-841330473#3 841330479#1 841330479#2 841330479#3 841330479#4"/>
    </person>
    <person id="10787" depart="107870.00">
        <walk edges="535556336#1 -535556336#1"/>
    </person>
    <person id="11050" depart="110500.00">
        <walk edges="-410036319#4 -410036319#3 410036317#0 410036316#3 -890646705#2 -890646705#1 -970796646#5"/>
    </person>
    <person id="11109" depart="111090.00">
        <walk edges="849764496#2 -849764496#1 -849764496#0 -152073613#1 -152073613#2 -849764501#0 849764501#1"/>
    </person>
    <person id="11132" depart="111320.00">
        <walk edges="-849764501#0 -152073613#2 -152073613#1 -849764496#0 -849764496#1 -849764494 -849764493#0"/>
    </person>
    <person id="11158" depart="111580.00">
        <walk edges="-970568634 -410036320#3 410036316#2 -890646705#2"/>
    </person>
    <person id="11182" depart="111820.00">
        <walk edges="-562047764#0 -562047764#1"/>
    </person>
    <person id="11193" depart="111930.00">
        <walk edges="-664950501#0 -664950501#1 -664950508#0 -664950508#1 -664950508#2 -664950508#3 -664950508#4"/>
    </person>
    <person id="11210" depart="112100.00">
        <walk edges="278132384#3 278132384#2 -278132384#1 697010966 -537228182#0 537228182#1"/>
    </person>
    <person id="11230" depart="112300.00">
        <walk edges="564166313#0 564166313#1"/>
    </person>
    <person id="11256" depart="112560.00">
        <walk edges="118339277#1 118339277#2 118339277#3 -118339220#2"/>
    </person>
    <person id="11296" depart="112960.00">
        <walk edges="-887728296"/>
    </person>
    <person id="11442" depart="114420.00">
        <walk edges="410036317#1 -410036319#1 -410036319#0 476312863#1 652202159"/>
    </person>
    <person id="11474" depart="114740.00">
        <walk edges="537282075#0 887728298"/>
    </person>
    <person id="11525" depart="115250.00">
        <walk edges="-1046248580#2 -1046248580#3 -1046248581 -691835090#2 -971814670#0 -914374547 561135428"/>
    </person>
    <person id="11547" depart="115470.00">
        <walk edges="95015360#1 95015375#4 95015374#0"/>
    </person>
    <person id="11584" depart="115840.00">
        <walk edges="-537228186 -537228182#2 -537228182#1 -537228182#0 697010966 -278132384#1 278132384#2 278132384#3 278132384#6 -886955296 -886955295 562047752"/>
    </person>
    <person id="11591" depart="115910.00">