<?xml version="1.0" encoding="UTF-8"?>

<!-- generated on 2025-05-08 09:07:12.888975 by randomTrips.py UNKNOWN
<configuration>
    <net-file value="unicamp/osm.net.xml"/>
    <additional-files value="unicamp/park.add.xml"/>
    <output-trip-file value="unicamp/randtrips.trips.xml"/>
    <route-file value="unicamp/randtrips.rou.xml"/>
    <validate value="True"/>
    <end value="1800.0"/>
    <period value="2.0"/>
</configuration>
-->

<!-- generated on 2025-05-08 09:07:12 by Eclipse SUMO duarouter Version 1.22.0
<duarouterConfiguration xmlns:xsi="http://www.w3.org/2001/XMLSchema-instance" xsi:noNamespaceSchemaLocation="http://sumo.dlr.de/xsd/duarouterConfiguration.xsd">

    <input>
        <net-file value="unicamp/osm.net.xml"/>
        <additional-files value="unicamp/park.add.xml"/>
        <route-files value="unicamp/randtrips.trips.xml"/>
    </input>

    <output>
        <output-file value="unicamp/randtrips.trips.xml.tmp"/>
        <alternatives-output value="NUL"/>
        <write-trips value="true"/>
    </output>

    <time>
        <begin value="0"/>
        <end value="1800.0"/>
    </time>

    <report>
        <no-warnings value="true"/>
        <ignore-errors value="true"/>
        <no-step-log value="true"/>
    </report>

</duarouterConfiguration>
-->

<routes xmlns:xsi="http://www.w3.org/2001/XMLSchema-instance" xsi:noNamespaceSchemaLocation="http://sumo.dlr.de/xsd/routes_file.xsd">
    <trip id="0" depart="0.00" from="70200198#5" to="-147419826#0"/>
    <trip id="1" depart="2.00" from="-88141324#0" to="-77948759#0"/>
    <trip id="2" depart="4.00" from="75416306#7" to="72644044#1"/>
    <trip id="3" depart="6.00" from="85631065#2" to="-563505769#10"/>
    <trip id="4" depart="8.00" from="386834059#5" to="-147419852#3"/>
    <trip id="5" depart="10.00" from="-77781347#2" to="563505743#3"/>
    <trip id="6" depart="12.00" from="-147419852#1" to="-75701376#4"/>
    <trip id="7" depart="14.00" from="72508572#1" to="689691698#12"/>
    <trip id="8" depart="16.00" from="-77783516#0" to="70056689#18"/>
    <trip id="9" depart="18.00" from="77674942#2" to="-1130964472"/>
    <trip id="10" depart="20.00" from="77674936#2" to="75259400#5"/>
    <trip id="11" depart="22.00" from="147379112#1" to="-72644044#7"/>
    <trip id="12" depart="24.00" from="890559137#1" to="147379114#1"/>
    <trip id="13" depart="26.00" from="-563505769#4" to="-663357753"/>
    <trip id="14" depart="28.00" from="77781346#0" to="70080980#3"/>
    <trip id="15" depart="30.00" from="77674938#3" to="75416306#10"/>
    <trip id="16" depart="32.00" from="564511809#1" to="890738229#4"/>
    <trip id="17" depart="34.00" from="220996670#0" to="689691699#2"/>
    <trip id="18" depart="36.00" from="77680543#4" to="70200195#12"/>
    <trip id="19" depart="38.00" from="77873286#6" to="69416762#2"/>
    <trip id="20" depart="40.00" from="75259402#2" to="-329703621#2"/>
    <trip id="21" depart="42.00" from="-78684176#0" to="-89431163#0"/>
    <trip id="22" depart="44.00" from="-563505758" to="-85631065#0"/>
    <trip id="23" depart="46.00" from="-69012634#3" to="-889993133#1"/>
    <trip id="24" depart="48.00" from="70200197#4" to="183876531#2"/>
    <trip id="25" depart="50.00" from="183876531#0" to="-77680543#1"/>
    <trip id="26" depart="52.00" from="-85701991" to="88141324#1"/>
    <trip id="27" depart="54.00" from="72508571#1" to="70200192#2"/>
    <trip id="28" depart="56.00" from="-75259400#5" to="75416306#1"/>
    <trip id="29" depart="58.00" from="-72644726#0" to="237036477#15"/>
    <trip id="30" depart="60.00" from="90743683#3" to="70200199#4"/>
    <trip id="31" depart="62.00" from="69012634#2" to="72644721#4"/>
    <trip id="32" depart="64.00" from="77781343#2" to="75701376#3"/>
    <trip id="33" depart="66.00" from="-78684176#2" to="-179051712#3"/>
    <trip id="34" depart="68.00" from="1046248579#1" to="-85701996#0"/>
    <trip id="35" depart="70.00" from="-77680543#1" to="889993132#0"/>
    <trip id="36" depart="72.00" from="77881557#6" to="1054468188#0"/>
    <trip id="37" depart="74.00" from="72508573#3" to="278132384#1"/>
    <trip id="38" depart="76.00" from="85701978#2" to="535558320#2"/>
    <trip id="39" depart="78.00" from="-85701988#4" to="-85631072#9"/>
    <trip id="40" depart="80.00" from="69321368#1" to="-85701988#4"/>
    <trip id="41" depart="82.00" from="69830501#2" to="85631072#0"/>
    <trip id="42" depart="84.00" from="269853395#0" to="-77783501#1"/>
    <trip id="43" depart="86.00" from="970808982" to="563505751#2"/>
    <trip id="44" depart="88.00" from="-563505769#2" to="-329703621#4"/>
    <trip id="45" depart="90.00" from="-70056691#1" to="70200195#6"/>
    <trip id="46" depart="92.00" from="77652221" to="386834060#8"/>
    <trip id="47" depart="94.00" from="-533682528#6" to="237036477#19"/>
    <trip id="48" depart="96.00" from="970642925" to="563505769#4"/>
    <trip id="50" depart="100.00" from="-147379108#0" to="75413339#2"/>
    <trip id="51" depart="102.00" from="72644044#4" to="627798939#0"/>
    <trip id="52" depart="104.00" from="-85701991" to="70200199#6"/>
    <trip id="53" depart="106.00" from="-70056694#1" to="447326050#1"/>
    <trip id="54" depart="108.00" from="533682528#2" to="890076349#2"/>
    <trip id="55" depart="110.00" from="77881557#5" to="-85701989"/>
    <trip id="56" depart="112.00" from="563505739#0" to="-75259405#7"/>
    <trip id="58" depart="116.00" from="-89530503#0" to="70200199#3"/>
    <trip id="59" depart="118.00" from="70080980#6" to="-72644044#2"/>
    <trip id="60" depart="120.00" from="75679335#4" to="664968457#0"/>
    <trip id="61" depart="122.00" from="75701376#4" to="563505769#6"/>
    <trip id="62" depart="124.00" from="-1046248579#0" to="1054468195#1"/>
    <trip id="63" depart="126.00" from="-147412859#2" to="85701995#1"/>
    <trip id="64" depart="128.00" from="77948714#1" to="77709899#0"/>
    <trip id="65" depart="130.00" from="-970630999#0" to="-447326050#1"/>
    <trip id="66" depart="132.00" from="77948714#0" to="890032153"/>
    <trip id="67" depart="134.00" from="-563505766#1" to="539691353#7"/>
    <trip id="68" depart="136.00" from="-539409504" to="75679335#5"/>
    <trip id="69" depart="138.00" from="75679337#5" to="-70200197#4"/>
    <trip id="70" depart="140.00" from="537232374#1" to="689691698#8"/>
    <trip id="72" depart="144.00" from="386834060#0" to="-77781344"/>
    <trip id="73" depart="146.00" from="564511814" to="75416306#11"/>
    <trip id="74" depart="148.00" from="-75701376#5" to="1046248579#2"/>
    <trip id="75" depart="150.00" from="970631000#3" to="72508573#12"/>
    <trip id="76" depart="152.00" from="447326049#7" to="563505765#3"/>
    <trip id="77" depart="154.00" from="-70200192#5" to="-77948763"/>
    <trip id="78" depart="156.00" from="147379108#2" to="70056689#16"/>
    <trip id="79" depart="158.00" from="-78684178#0" to="-77783516#0"/>
    <trip id="80" depart="160.00" from="-539691352#2" to="70200197#2"/>
    <trip id="81" depart="162.00" from="-78684176#2" to="85631074#0"/>
    <trip id="82" depart="164.00" from="77873286#3" to="-563505734#0"/>
    <trip id="83" depart="166.00" from="-85631065#6" to="72508821#0"/>
    <trip id="84" depart="168.00" from="-77781345#1" to="-70200198#5"/>
    <trip id="85" depart="170.00" from="85703442#1" to="693637406#16"/>
    <trip id="87" depart="174.00" from="77674938#4" to="-75413336#2"/>
    <trip id="88" depart="176.00" from="-663357753" to="447326049#4"/>
    <trip id="89" depart="178.00" from="386834060#1" to="535725901#3"/>
    <trip id="90" depart="180.00" from="75413342" to="72641085#0"/>
    <trip id="91" depart="182.00" from="89530503#6" to="-664980454"/>
    <trip id="92" depart="184.00" from="278132384#3" to="147379116#6"/>
    <trip id="93" depart="186.00" from="77873286#6" to="-856607131#0"/>
    <trip id="94" depart="188.00" from="-75413333#0" to="533682528#2"/>
    <trip id="95" depart="190.00" from="386834059#5" to="-890076349#0"/>
    <trip id="96" depart="192.00" from="-85631074#0" to="85701988#3"/>
    <trip id="97" depart="194.00" from="447326319#3" to="77873286#7"/>
    <trip id="98" depart="196.00" from="689691698#14" to="-365875108"/>
    <trip id="99" depart="198.00" from="IC" to="77712876#2"/>
    <trip id="100" depart="200.00" from="890681699#1" to="85701991"/>
    <trip id="101" depart="202.00" from="77781347#0" to="-73961832"/>
    <trip id="102" depart="204.00" from="539691353#0" to="-77781345#2"/>
    <trip id="103" depart="206.00" from="278132384#0" to="-447326319#1"/>
    <trip id="104" depart="208.00" from="220996671" to="89530503#6"/>
    <trip id="105" depart="210.00" from="-85701989" to="769466394#0"/>
    <trip id="106" depart="212.00" from="533682528#4" to="386834060#9"/>
    <trip id="107" depart="214.00" from="890559137#1" to="970631000#3"/>
    <trip id="108" depart="216.00" from="69012634#0" to="75413336#1"/>
    <trip id="109" depart="218.00" from="-72644044#3" to="-89530503#4"/>
    <trip id="110" depart="220.00" from="890681699#1" to="69416764#1"/>
    <trip id="111" depart="222.00" from="664968457#0" to="75679316#2"/>
    <trip id="112" depart="224.00" from="-447326319#0" to="70056689#0"/>
    <trip id="113" depart="226.00" from="563505740#1" to="77790788#0"/>
    <trip id="114" depart="228.00" from="-72644045#0" to="890559265#3"/>
    <trip id="115" depart="230.00" from="-563505765#0" to="-75413331#0"/>
    <trip id="116" depart="232.00" from="70056689#3" to="72641085#3"/>
    <trip id="117" depart="234.00" from="-85631065#1" to="-70200192#5"/>
    <trip id="118" depart="236.00" from="85631060#1" to="-85631072#8"/>
    <trip id="119" depart="238.00" from="70056689#20" to="70200195#14"/>
    <trip id="120" depart="240.00" from="365875109#1" to="69830501#6"/>
    <trip id="121" depart="242.00" from="563505765#8" to="85703442#2"/>
    <trip id="122" depart="244.00" from="-76845633#2" to="75413332#1"/>
    <trip id="123" depart="246.00" from="-85631069#0" to="278132384#1"/>
    <trip id="124" depart="248.00" from="72508818" to="-90743683#0"/>
    <trip id="125" depart="250.00" from="1047718297" to="75679319#4"/>
    <trip id="126" depart="252.00" from="-563505734#2" to="535558320#10"/>
    <trip id="127" depart="254.00" from="FEEC" to="970631000#4"/>
    <trip id="128" depart="256.00" from="-563505734#3" to="-77781345#1"/>
    <trip id="129" depart="258.00" from="-85701989" to="85701998"/>
    <trip id="130" depart="260.00" from="77948763" to="77948766"/>
    <trip id="131" depart="262.00" from="183658213#1" to="-72644721#1"/>
    <trip id="132" depart="264.00" from="77709899#0" to="75259405#1"/>
    <trip id="133" depart="266.00" from="70200192#1" to="89530507"/>
    <trip id="134" depart="268.00" from="72508573#13" to="-147379106#0"/>
    <trip id="135" depart="270.00" from="77674947#3" to="-89530507"/>
    <trip id="136" depart="272.00" from="72508815#18" to="887737023"/>
    <trip id="137" depart="274.00" from="-70200198#6" to="-70080981#1"/>
    <trip id="138" depart="276.00" from="-69416763#1" to="69012634#1"/>
    <trip id="139" depart="278.00" from="-85701998" to="70080980#5"/>
    <trip id="140" depart="280.00" from="75413331#1" to="-76845636#1"/>
    <trip id="141" depart="282.00" from="70200197#2" to="-85701990#0"/>
    <trip id="142" depart="284.00" from="539691353#6" to="85631074#0"/>
    <trip id="143" depart="286.00" from="77781345#1" to="-563505769#5"/>
    <trip id="144" depart="288.00" from="386834060#1" to="-889993132#2"/>
    <trip id="145" depart="290.00" from="-1054468192#2" to="75701374#5"/>
    <trip id="146" depart="292.00" from="70200198#0" to="-85701988#1"/>
    <trip id="147" depart="294.00" from="75679256#4" to="689691699#1"/>
    <trip id="148" depart="296.00" from="386834060#8" to="-147379107#0"/>
    <trip id="149" depart="298.00" from="-563505737#1" to="78684176#3"/>
    <trip id="150" depart="300.00" from="85631072#4" to="689691698#13"/>
    <trip id="151" depart="302.00" from="77709899#1" to="69830501#4"/>
    <trip id="152" depart="304.00" from="-72508821#5" to="-70200197#2"/>
    <trip id="153" depart="306.00" from="-970630999#1" to="85631072#10"/>
    <trip id="155" depart="310.00" from="85631072#0" to="-77680543#2"/>
    <trip id="156" depart="312.00" from="-85631074#0" to="-691836138#1"/>
    <trip id="157" depart="314.00" from="75701376#6" to="78684178#1"/>
    <trip id="158" depart="316.00" from="329703620#1" to="70200195#16"/>
    <trip id="159" depart="318.00" from="-72644044#3" to="85701995#3"/>
    <trip id="160" depart="320.00" from="77873314#3" to="89430987#1"/>
    <trip id="161" depart="322.00" from="77674945#1" to="78684176#0"/>
    <trip id="162" depart="324.00" from="-147419826#4" to="75679256#10"/>
    <trip id="163" depart="326.00" from="1130964472" to="85701996#0"/>
    <trip id="165" depart="330.00" from="77674945#1" to="-85701993#2"/>
    <trip id="166" depart="332.00" from="769466394#1" to="-70056691#0"/>
    <trip id="168" depart="336.00" from="-77790815#0" to="77674950#1"/>
    <trip id="169" depart="338.00" from="535556339#1" to="-970630999#2"/>
    <trip id="170" depart="340.00" from="77674918#2" to="-78684176#2"/>
    <trip id="171" depart="342.00" from="-147419826#1" to="-75413339#4"/>
    <trip id="173" depart="346.00" from="890593765" to="-890076349#2"/>
    <trip id="174" depart="348.00" from="70200199#1" to="329703619#3"/>
    <trip id="175" depart="350.00" from="89530503#1" to="564511813#0"/>
    <trip id="176" depart="352.00" from="889430998" to="-70080981#0"/>
    <trip id="177" depart="354.00" from="890738229#1" to="-75259405#7"/>
    <trip id="178" depart="356.00" from="890586226" to="-85701991"/>
    <trip id="179" depart="358.00" from="-69416764#1" to="447326050#1"/>
    <trip id="180" depart="360.00" from="75413342" to="1054468187#2"/>
    <trip id="181" depart="362.00" from="70080980#2" to="563505756#1"/>
    <trip id="182" depart="364.00" from="237036477#15" to="69416762#1"/>
    <trip id="183" depart="366.00" from="-856633554#1" to="75259406#2"/>
    <trip id="184" depart="368.00" from="-1046248579#2" to="85701990#1"/>
    <trip id="185" depart="370.00" from="564511813#0" to="75413336#3"/>
    <trip id="186" depart="372.00" from="75679256#7" to="72508821#3"/>
    <trip id="187" depart="374.00" from="147419852#0" to="-539691352#1"/>
    <trip id="188" depart="376.00" from="72508815#2" to="147379107#0"/>
    <trip id="189" depart="378.00" from="1013410328" to="77781347#1"/>
    <trip id="190" depart="380.00" from="75413333#0" to="-90743683#1"/>
    <trip id="191" depart="382.00" from="-970631000#0" to="329703621#7"/>
    <trip id="192" depart="384.00" from="278132384#2" to="-89530503#3"/>
    <trip id="193" depart="386.00" from="-70200197#0" to="386834060#3"/>
    <trip id="194" depart="388.00" from="889486571#1" to="72644044#2"/>
    <trip id="195" depart="390.00" from="85631072#2" to="70200193#4"/>
    <trip id="196" depart="392.00" from="-89530503#4" to="689691698#4"/>
    <trip id="197" depart="394.00" from="-1046248579#0" to="-890738229#5"/>
    <trip id="198" depart="396.00" from="430268897" to="69416764#2"/>
    <trip id="199" depart="398.00" from="72508573#2" to="535725901#0"/>
    <trip id="200" depart="400.00" from="447326319#2" to="-77781345#2"/>
    <trip id="201" depart="402.00" from="535725903#0" to="85631072#14"/>
    <trip id="202" depart="404.00" from="77674918#3" to="-75259400#4"/>
    <trip id="203" depart="406.00" from="-563505765#8" to="563505765#0"/>
    <trip id="204" depart="408.00" from="70200197#0" to="147379112#1"/>
    <trip id="205" depart="410.00" from="77674947#5" to="75679319#3"/>
    <trip id="206" depart="412.00" from="72508821#1" to="-77948763"/>
    <trip id="207" depart="414.00" from="-75701376#2" to="-147416171#0"/>
    <trip id="208" depart="416.00" from="-85631072#13" to="538971324"/>
    <trip id="209" depart="418.00" from="77781347#1" to="-563505734#3"/>
    <trip id="210" depart="420.00" from="329703621#8" to="70200197#0"/>
    <trip id="211" depart="422.00" from="-75413339#3" to="75259400#2"/>
    <trip id="212" depart="424.00" from="563505734#3" to="-85631072#2"/>
    <trip id="213" depart="426.00" from="72508573#5" to="-1075116935#0"/>
    <trip id="214" depart="428.00" from="75679316#2" to="75701374#2"/>
    <trip id="215" depart="430.00" from="-69416763#0" to="447326043"/>
    <trip id="216" depart="432.00" from="-75259405#0" to="890559137#1"/>
    <trip id="217" depart="434.00" from="563505764#1" to="-333333538"/>
    <trip id="218" depart="436.00" from="-85631072#9" to="77781347#2"/>
    <trip id="220" depart="440.00" from="72508815#7" to="906065938"/>
    <trip id="221" depart="442.00" from="70056689#4" to="890063336#3"/>
    <trip id="222" depart="444.00" from="85631065#0" to="70200192#9"/>
    <trip id="223" depart="446.00" from="75413333#0" to="563505743#2"/>
    <trip id="224" depart="448.00" from="77709896#1" to="689691698#4"/>
    <trip id="225" depart="450.00" from="85631071#0" to="75679307#1"/>
    <trip id="226" depart="452.00" from="537232374#0" to="-85701987#1"/>
    <trip id="227" depart="454.00" from="-85631072#4" to="70200199#0"/>
    <trip id="228" depart="456.00" from="75679337#5" to="563505767#1"/>
    <trip id="229" depart="458.00" from="70200195#20" to="-889486571#1"/>
    <trip id="230" depart="460.00" from="-563505740#2" to="-890738229#3"/>
    <trip id="231" depart="462.00" from="-85701997#2" to="1054468193#2"/>
    <trip id="232" depart="464.00" from="627798939#1" to="-70200199#8"/>
    <trip id="233" depart="466.00" from="-78684178#2" to="73961832"/>
    <trip id="234" depart="468.00" from="75259405#0" to="-533682528#5"/>
    <trip id="235" depart="470.00" from="329703620#3" to="689691698#0"/>
    <trip id="236" depart="472.00" from="362639206" to="-77674920#1"/>
    <trip id="237" depart="474.00" from="365875111" to="85631072#9"/>
    <trip id="238" depart="476.00" from="69830501#1" to="75259400#0"/>
    <trip id="240" depart="480.00" from="223126919#0" to="-1075116935#1"/>
    <trip id="241" depart="482.00" from="147412866#1" to="75679325#1"/>
    <trip id="242" depart="484.00" from="77783516#1" to="890076349#0"/>
    <trip id="243" depart="486.00" from="365875109#1" to="75679316#1"/>
    <trip id="244" depart="488.00" from="689691697" to="70080980#2"/>
    <trip id="245" depart="490.00" from="-77783516#0" to="-77783501#1"/>
    <trip id="246" depart="492.00" from="447326049#3" to="-147419852#2"/>
    <trip id="247" depart="494.00" from="147379107#2" to="72644044#5"/>
    <trip id="248" depart="496.00" from="329703619#2" to="-72644727#1"/>
    <trip id="249" depart="498.00" from="535558320#7" to="-70200197#3"/>
    <trip id="250" depart="500.00" from="70200195#13" to="-147419826#4"/>
    <trip id="251" depart="502.00" from="237036477#8" to="693637327#1"/>
    <trip id="252" depart="504.00" from="-147419852#2" to="70200199#9"/>
    <trip id="253" depart="506.00" from="-70200199#1" to="535558320#7"/>
    <trip id="254" depart="508.00" from="-365875109#1" to="237036477#14"/>
    <trip id="255" depart="510.00" from="-77680543#2" to="1075116935#1"/>
    <trip id="256" depart="512.00" from="75679333#8" to="237036477#14"/>
    <trip id="257" depart="514.00" from="75679319#0" to="77709899#1"/>
    <trip id="258" depart="516.00" from="-856607131#3" to="-563505765#4"/>
    <trip id="259" depart="518.00" from="-147412859#2" to="664968457#0"/>
    <trip id="260" depart="520.00" from="begin" to="147419826#2"/>
    <trip id="261" depart="522.00" from="72508572#1" to="76845633#0"/>
    <trip id="262" depart="524.00" from="72508573#1" to="75679328#2"/>
    <trip id="263" depart="526.00" from="890063336#4" to="-75701376#5"/>
    <trip id="264" depart="528.00" from="-147412866#2" to="-72644044#1"/>
    <trip id="265" depart="530.00" from="-70200194#0" to="72508821#1"/>
    <trip id="266" depart="532.00" from="69322779#4" to="-77783446#0"/>
    <trip id="267" depart="534.00" from="75259400#1" to="75701371"/>
    <trip id="268" depart="536.00" from="-75259399" to="70080981#2"/>
    <trip id="269" depart="538.00" from="75679307#4" to="-70078009#3"/>
    <trip id="270" depart="540.00" from="77674950#1" to="890586228"/>
    <trip id="271" depart="542.00" from="-69416764#1" to="-147419826#1"/>
    <trip id="272" depart="544.00" from="-970631000#4" to="72644044#2"/>
    <trip id="273" depart="546.00" from="890559138" to="278132384#3"/>
    <trip id="274" depart="548.00" from="75413329#2" to="-563505740#1"/>
    <trip id="275" depart="550.00" from="72644725#1" to="70200195#5"/>
    <trip id="276" depart="552.00" from="-69012634#4" to="75701374#7"/>
    <trip id="277" depart="554.00" from="77781347#2" to="70078009#0"/>
    <trip id="278" depart="556.00" from="-70200192#5" to="89530503#4"/>
    <trip id="279" depart="558.00" from="76845629" to="147412875#1"/>
    <trip id="280" depart="560.00" from="386834060#9" to="197940943#0"/>
    <trip id="281" depart="562.00" from="563505743#0" to="147379116#9"/>
    <trip id="282" depart="564.00" from="77781347#1" to="77676171"/>
    <trip id="283" depart="566.00" from="-69416760#2" to="890559265#3"/>
    <trip id="284" depart="568.00" from="70200197#4" to="77709896#3"/>
    <trip id="285" depart="570.00" from="75259405#2" to="447326319#0"/>
    <trip id="286" depart="572.00" from="75416306#3" to="890586764"/>
    <trip id="287" depart="574.00" from="-85701996#0" to="77674945#2"/>
    <trip id="288" depart="576.00" from="564511812" to="539691353#2"/>
    <trip id="289" depart="578.00" from="447326049#2" to="75416306#3"/>
    <trip id="290" depart="580.00" from="-85701993#1" to="77783516#2"/>
    <trip id="291" depart="582.00" from="77709896#2" to="-563505769#10"/>
    <trip id="292" depart="584.00" from="77948766" to="-85631072#2"/>
    <trip id="293" depart="586.00" from="535558320#3" to="70200192#4"/>
    <trip id="294" depart="588.00" from="220996671" to="-147419852#1"/>
    <trip id="295" depart="590.00" from="77783446#1" to="-75259407"/>
    <trip id="296" depart="592.00" from="-77680543#3" to="77674922#3"/>
    <trip id="297" depart="594.00" from="147379112#1" to="78592298#1"/>
    <trip id="298" depart="596.00" from="75259400#4" to="-889993132#1"/>
    <trip id="299" depart="598.00" from="-147379107#1" to="890063336#0"/>
    <trip id="300" depart="600.00" from="-563505766#1" to="75413339#0"/>
    <trip id="301" depart="602.00" from="539691353#6" to="75679333#6"/>
    <trip id="302" depart="604.00" from="72644725#1" to="72508572#0"/>
    <trip id="303" depart="606.00" from="547113479" to="77674918#2"/>
    <trip id="304" depart="608.00" from="-563505769#5" to="-77948714#0"/>
    <trip id="305" depart="610.00" from="72644725#3" to="-970631000#1"/>
    <trip id="306" depart="612.00" from="69416763#1" to="537250022"/>
    <trip id="307" depart="614.00" from="563505769#3" to="447326043"/>
    <trip id="308" depart="616.00" from="75679299#1" to="147379107#1"/>
    <trip id="309" depart="618.00" from="75259400#7" to="-85703442#0"/>
    <trip id="310" depart="620.00" from="-856607131#2" to="-70200192#8"/>
    <trip id="311" depart="622.00" from="-75413336#3" to="-70200192#5"/>
    <trip id="312" depart="624.00" from="564511809#0" to="75679337#1"/>
    <trip id="313" depart="626.00" from="-75413330#0" to="-77781347#1"/>
    <trip id="314" depart="628.00" from="539691352#0" to="75413341#1"/>
    <trip id="315" depart="630.00" from="89431163#2" to="563505769#13"/>
    <trip id="316" depart="632.00" from="-890076349#2" to="-69012634#3"/>
    <trip id="317" depart="634.00" from="-75413339#2" to="-78684176#2"/>
    <trip id="318" depart="636.00" from="-75259405#6" to="-147379112#0"/>
    <trip id="319" depart="638.00" from="563505769#9" to="-889486571#1"/>
    <trip id="320" depart="640.00" from="89430987#0" to="69012634#1"/>
    <trip id="321" depart="642.00" from="73961832" to="-70200197#0"/>
    <trip id="322" depart="644.00" from="77874668#2" to="563505734#1"/>
    <trip id="323" depart="646.00" from="77881557#0" to="69416760#2"/>
    <trip id="324" depart="648.00" from="535558321#1" to="447326322#1"/>
    <trip id="325" depart="650.00" from="-75413329#1" to="-365875109#0"/>
    <trip id="326" depart="652.00" from="889992192" to="539410728"/>
    <trip id="327" depart="654.00" from="77674950#7" to="329703620#1"/>
    <trip id="328" depart="656.00" from="-563505734#4" to="70200195#9"/>
    <trip id="329" depart="658.00" from="-430268897" to="-72641085#1"/>
    <trip id="330" depart="660.00" from="69322779#0" to="-970630999#0"/>
    <trip id="331" depart="662.00" from="970631000#1" to="-70200192#3"/>
    <trip id="332" depart="664.00" from="75679337#1" to="70080981#0"/>
    <trip id="333" depart="666.00" from="769466394#7" to="-78684173"/>
    <trip id="334" depart="668.00" from="563505765#7" to="533682528#6"/>
    <trip id="336" depart="672.00" from="911130020" to="-970630999#2"/>
    <trip id="337" depart="674.00" from="70200195#11" to="70200192#3"/>
    <trip id="338" depart="676.00" from="75679256#2" to="890063335"/>
    <trip id="339" depart="678.00" from="-77674920#1" to="-77680543#4"/>
    <trip id="340" depart="680.00" from="72508815#13" to="-72644045#1"/>
    <trip id="341" depart="682.00" from="-75259402#1" to="-563505737#2"/>
    <trip id="342" depart="684.00" from="-1054468192#0" to="533682528#6"/>
    <trip id="343" depart="686.00" from="70056689#2" to="-89431164#0"/>
    <trip id="344" depart="688.00" from="-78684178#3" to="75259405#7"/>
    <trip id="345" depart="690.00" from="75259400#7" to="535556339#0"/>
    <trip id="346" depart="692.00" from="72644721#4" to="85701988#4"/>
    <trip id="347" depart="694.00" from="769466394#10" to="70200195#23"/>
    <trip id="348" depart="696.00" from="72508815#14" to="85703442#0"/>
    <trip id="349" depart="698.00" from="386834060#12" to="689691698#11"/>
    <trip id="350" depart="700.00" from="72508571#0" to="856607131#5"/>
    <trip id="351" depart="702.00" from="77680543#0" to="-563505734#1"/>
    <trip id="352" depart="704.00" from="-72644727#1" to="-970631000#3"/>
    <trip id="353" depart="706.00" from="75679312#1" to="693637406#12"/>
    <trip id="354" depart="708.00" from="-890738229#1" to="-70200193#4"/>
    <trip id="355" depart="710.00" from="72644721#6" to="75259402#0"/>
    <trip id="356" depart="712.00" from="889993132#1" to="563505740#2"/>
    <trip id="357" depart="714.00" from="563505734#2" to="-563505765#1"/>
    <trip id="358" depart="716.00" from="-223126921" to="447326049#6"/>
    <trip id="359" depart="718.00" from="1054468192#2" to="-856607131#3"/>
    <trip id="360" depart="720.00" from="-563505769#20" to="890559266#1"/>
    <trip id="361" depart="722.00" from="77709899#4" to="69416761"/>
    <trip id="362" depart="724.00" from="890063336#8" to="IC"/>
    <trip id="363" depart="726.00" from="72508821#1" to="-85701997#2"/>
    <trip id="364" depart="728.00" from="-278132384#0" to="75679333#2"/>
    <trip id="366" depart="732.00" from="85701983#0" to="-75259407"/>
    <trip id="367" depart="734.00" from="69830501#4" to="70200198#3"/>
    <trip id="368" depart="736.00" from="562096883" to="-563505769#3"/>
    <trip id="369" depart="738.00" from="147412853#3" to="147379108#2"/>
    <trip id="371" depart="742.00" from="1054468196" to="72644727#2"/>
    <trip id="372" depart="744.00" from="-890738229#0" to="889993133#1"/>
    <trip id="373" depart="746.00" from="77674945#6" to="689691698#8"/>
    <trip id="374" depart="748.00" from="533682528#4" to="1054468188#0"/>
    <trip id="375" depart="750.00" from="1054468193#0" to="890681699#1"/>
    <trip id="376" depart="752.00" from="329703619#0" to="563505764#0"/>
    <trip id="377" depart="754.00" from="90743683#1" to="72508815#14"/>
    <trip id="378" depart="756.00" from="664968457#1" to="365875109#1"/>
    <trip id="379" depart="758.00" from="-75413331#0" to="179051712#4"/>
    <trip id="380" depart="760.00" from="75679328#1" to="70200195#23"/>
    <trip id="381" depart="762.00" from="75679333#6" to="-76845636#1"/>
    <trip id="382" depart="764.00" from="689691698#12" to="85701993#2"/>
    <trip id="383" depart="766.00" from="447326049#7" to="75259400#5"/>
    <trip id="384" depart="768.00" from="-70200192#6" to="890738229#4"/>
    <trip id="385" depart="770.00" from="70080980#6" to="-85631071#2"/>
    <trip id="386" depart="772.00" from="-72644721#0" to="689691699#0"/>
    <trip id="387" depart="774.00" from="689691698#5" to="-563505769#6"/>
    <trip id="388" depart="776.00" from="970630999#0" to="85701978#1"/>
    <trip id="389" depart="778.00" from="535556339#3" to="-70200192#1"/>
    <trip id="390" depart="780.00" from="77709897#0" to="563505739#0"/>
    <trip id="391" depart="782.00" from="75413330#2" to="563505751#1"/>
    <trip id="392" depart="784.00" from="-85703442#1" to="77712876#0"/>
    <trip id="393" depart="786.00" from="89530500" to="-85631072#2"/>
    <trip id="394" depart="788.00" from="689691698#3" to="237036477#21"/>
    <trip id="395" depart="790.00" from="85701987#2" to="563505751#0"/>
    <trip id="397" depart="794.00" from="-88141326#1" to="77652222"/>
    <trip id="398" depart="796.00" from="333333538" to="85703442#1"/>
    <trip id="399" depart="798.00" from="563505743#3" to="77674950#9"/>
    <trip id="400" depart="800.00" from="-890076349#2" to="-89530503#8"/>
    <trip id="401" depart="802.00" from="69830501#6" to="FEEC"/>
    <trip id="402" depart="804.00" from="539691353#8" to="-72641085#0"/>
    <trip id="403" depart="806.00" from="564511813#0" to="147412859#2"/>
    <trip id="404" depart="808.00" from="689691698#4" to="689691698#1"/>
    <trip id="405" depart="810.00" from="533682528#5" to="1054468194#2"/>
    <trip id="406" depart="812.00" from="-75413332#0" to="75259400#4"/>
    <trip id="407" depart="814.00" from="693637406#11" to="-85631065#1"/>
    <trip id="408" depart="816.00" from="75701374#9" to="-278132384#3"/>
    <trip id="409" depart="818.00" from="75679284#1" to="75259405#4"/>
    <trip id="410" depart="820.00" from="77674945#2" to="237036477#4"/>