<?xml version="1.0" encoding="UTF-8"?>

<!-- generated on 2024-12-02 15:26:29.012968 by randomTrips.py UNKNOWN
<configuration>
    <net-file value="osm.net.xml"/>
    <additional-files value="osm_stops.add.xml"/>
    <output-trip-file value="randtrips.trips.xml"/>
    <route-file value="randtrips.rou.xml"/>
    <vehicle-class value="passenger"/>
    <validate value="True"/>
    <end value="100.0"/>
</configuration>
-->

<!-- generated on 2024-12-02 15:26:28 by Eclipse SUMO duarouter Version 1.21.0
<duarouterConfiguration xmlns:xsi="http://www.w3.org/2001/XMLSchema-instance" xsi:noNamespaceSchemaLocation="http://sumo.dlr.de/xsd/duarouterConfiguration.xsd">

    <input>
        <net-file value="osm.net.xml"/>
        <additional-files value="osm_stops.add.xml"/>
        <route-files value="randtrips.trips.xml"/>
    </input>

    <output>
        <output-file value="randtrips.rou.xml"/>
        <alternatives-output value="NUL"/>
    </output>

    <time>
        <begin value="0"/>
        <end value="100.0"/>
    </time>

    <report>
        <no-warnings value="true"/>
        <ignore-errors value="true"/>
        <no-step-log value="true"/>
    </report>

</duarouterConfiguration>
-->

<routes xmlns:xsi="http://www.w3.org/2001/XMLSchema-instance" xsi:noNamespaceSchemaLocation="http://sumo.dlr.de/xsd/routes_file.xsd">
    <vType id="passenger" vClass="passenger"/>
    <vehicle id="0" type="passenger" depart="0.00">
        <route edges="70200198#5 -70200198#5 -70200198#4 -70200198#3 -70200198#2 -70200198#0 147379108#4 890586228 70056689#16 70056689#17 70056689#18 70056689#19 70056689#20 183876535#7 890063337#0 539685790#1 563505747#2 563505747#3 890020478#1 890076350 563505743#0 563505743#1 563505743#2 -147419826#2 -147419826#1 -147419826#0"/>
    </vehicle>
    <vehicle id="1" type="passenger" depart="1.00">
        <route edges="-88141324#0 -563505765#2 -563505765#1 -563505765#0 539414318 70080979#6 70080979#7 70080979#8 70080979#9 70080979#10 70080979#11 70080979#12 70080979#1 70080979#2 77781343#0 77781343#1 77781343#2 77781343#3 77781343#4 689691698#7 70056694#0 70056694#1 70056694#2 70056694#3 70056694#4 -70200192#3 -70200192#2 -70200192#1 -70200198#2 -70200198#0 147379108#4 890586228 70056689#16 70056689#17 70056689#18 70056689#19 70056689#20 183876535#7 890063337#0 539685790#1 563505747#2 563505747#3 890020478#1 890076350 563505743#0 563505743#1 563505743#2 -147419826#2 -147419826#1 -77948763 -77948759#0"/>
    </vehicle>
    <vehicle id="2" type="passenger" depart="2.00">
        <route edges="75416306#7 -72644044#7 -72644044#6 -72644044#5 -72644044#4 -72644044#3 -72644044#2 -72644044#1 72644044#1"/>
    </vehicle>
    <vehicle id="3" type="passenger" depart="3.00">
        <route edges="85631065#2 85631065#3 -85631074#0 85631072#4 85631072#5 69830501#2 69830501#3 69830501#4 69830501#5 69830501#6 70080979#10 70080979#11 70080979#12 70080979#1 70080979#2 77781343#0 77781343#1 77781343#2 77781343#3 77781343#4 689691698#7 689691698#8 689691698#9 689691698#10 689691698#11 689691698#12 689691698#13 689691698#14 -179051712#4 -179051712#3 -179051712#2 -179051712#1 -179051712#0 890556455#1 89478571#1 89478571#2 89478571#3 89478571#4 89478571#5 89478571#6 89478571#7 269853395#0 269853395#1 269853395#2 77670431#2 77670431#3 77670431#4 72508815#14 72508815#15 72508815#16 72508815#17 72508815#18 72508815#19 889992192 72508815#0 72508815#1 72508815#2 75679335#1 -563505769#10"/>
    </vehicle>
    <vehicle id="4" type="passenger" depart="4.00">
        <route edges="386834059#5 386834059#7 841305892 535558322#0 535558322#1 535558320#0 535558320#1 535558320#2 535558320#3 535558320#4 535558320#5 535558320#6 535558320#7 535558320#8 535558320#9 535558320#10 447326318 72508818 -447326319#4 -447326319#3 -447326319#2 -447326319#1 -447326319#0 183876531#0 183876531#1 183876531#2 183876531#3 183876531#4 183876531#6 183876531#7 75679292#2 890559265#0 890559265#1 890559265#2 890559265#3 75679284#0 75679284#1 693637327#1 693637327#2 889999537#0 889999537#1 89478571#1 70056689#0 70056689#1 70056689#2 70056689#3 70056689#4 70056689#5 70056689#6 70056689#7 70056689#8 70056689#9 70056689#10 70056689#11 70056689#12 70056689#13 70056689#14 70056689#16 70056689#17 70056689#18 70056689#19 890063336#2 890063336#3 890063336#4 890063336#5 85701995#1 85701995#2 85701995#3 69416763#0 69416763#1 147419852#0 147419852#1 147419852#2 147419852#3 -147419852#3"/>
    </vehicle>
    <vehicle id="5" type="passenger" depart="5.00">
        <route edges="-77781347#2 -77781347#1 77781343#4 689691698#7 70056694#0 70056694#1 70056694#2 70056694#3 70056694#4 -70200192#3 -70200192#2 -70200192#1 -70200198#2 -70200198#0 147379108#4 890586228 70056689#16 70056689#17 70056689#18 70056689#19 70056689#20 183876535#7 890063337#0 539685790#1 563505747#2 563505747#3 890020478#1 890076350 563505743#0 563505743#1 563505743#2 563505743#3"/>
    </vehicle>
    <vehicle id="6" type="passenger" depart="6.00">
        <route edges="-147419852#1 -147419852#0 85701991 85701990#0 85701990#1 430268897 183876535#5 183876535#7 70200195#2 70200195#3 70200195#4 890015553 691836138#1 75259402#0 75259402#1 75259402#2 -72644721#7 -72644721#6 -72644721#5 -72644721#4 -72644721#3 -72644721#2 -72644721#1 -72644721#0 89478572#3 89478572#4 89478572#5 89478572#6 89478572#7 75679299#0 75679299#1 693637403 693637406#1 693637406#2 693637406#3 77674938#2 77674938#3 77674938#4 538031522#0 538031522#1 769466394#5 769466394#7 769466394#8 769466394#10 952984038#0 952984038#1 952984038#2 -75701376#7 -75701376#6 -75701376#5 -75701376#4"/>
    </vehicle>
    <vehicle id="7" type="passenger" depart="7.00">
        <route edges="72508572#1 -72508572#1 -72508572#0 890681699#1 890593765 689691698#11 689691698#12"/>
    </vehicle>
    <vehicle id="8" type="passenger" depart="8.00">
        <route edges="-77783516#0 70080979#2 77781343#0 77781343#1 77781343#2 77781343#3 77781343#4 689691698#7 70056694#0 70056694#1 70056694#2 70056694#3 70056694#4 -70200192#3 -70200192#2 -70200192#1 -70200198#2 -70200198#0 147379108#4 890586228 70056689#16 70056689#17 70056689#18"/>
    </vehicle>
    <vehicle id="9" type="passenger" depart="9.00">
        <route edges="77674942#2 77674942#3 FEEC 693637406#10 693637406#11 693637406#12 693637406#13 693637406#14 693637406#15 693637406#16 906065938 1013410331 329703619#0 329703619#2 537250022 329703620#2 329703621#0 329703621#1 329703621#2 329703621#3 329703621#4 329703621#5 329703621#6 329703621#7 -1130964472"/>
    </vehicle>
    <vehicle id="10" type="passenger" depart="10.00">
        <route edges="77674936#2 77674947#5 77674942#0 77674942#1 77674942#2 77674942#3 72508573#10 72508573#11 72508573#12 72508573#13 693637397#0 693637397#1 89478572#9 889999539 89478572#0 89478572#1 89478572#2 72644721#0 72644721#1 72644721#2 -75259406#2 75259400#5"/>
    </vehicle>
    <vehicle id="11" type="passenger" depart="11.00">
        <route edges="147379112#1 539410729 689691698#4 689691698#5 689691698#7 689691698#8 689691698#9 689691698#10 689691698#11 689691698#12 689691698#13 689691698#14 -179051712#4 -179051712#3 -179051712#2 -179051712#1 -179051712#0 890556455#1 89478571#1 89478571#2 89478571#3 69321368#0 69321368#1 69321368#2 69321368#3 89478572#1 89478572#2 89478572#3 75416306#0 75416306#1 75416306#2 75416306#3 75416306#4 75416306#5 75416306#6 75416306#7 -72644044#7"/>
    </vehicle>
    <vehicle id="12" type="passenger" depart="12.00">
        <route edges="890559137#1 -890559138 77652221 -664968457#1 -664968457#0 689691698#14 -179051712#4 -179051712#3 -179051712#2 -179051712#1 70200197#0 70200197#1 70200197#2 70200197#3 70200197#4 70200197#5 70200197#6 147379108#0 147379114#1"/>
    </vehicle>
    <vehicle id="13" type="passenger" depart="13.00">
        <route edges="-563505769#4 -563505769#3 -563505769#2 -563505769#1 563505768#1 563505768#2 72508573#13 693637397#0 693637397#1 89478572#9 889999539 89478572#0 89478572#1 89478572#2 89478572#3 75416306#0 75416306#1 75416306#2 75416306#3 75416306#4 75416306#5 75416306#6 75416306#7 75416306#8 75416306#10 563505741#0 563505741#1 -890747060#1 -890747060#0 -76845636#1 77676169#0 77676169#1 69322779#6 69322779#7 69416761 890076349#0 890076349#2 890076349#3 89530503#0 89530503#1 -77948714#1 -77948714#0 89431164#0 -89431163#1 -89431163#0 -223126921 -663357753"/>
    </vehicle>
    <vehicle id="14" type="passenger" depart="14.00">
        <route edges="77781346#0 77781347#0 77781347#1 77781347#2 70080980#3"/>
    </vehicle>
    <vehicle id="15" type="passenger" depart="15.00">
        <route edges="77674938#3 77674938#4 77674942#0 77674942#1 77674942#2 77674942#3 72508573#10 72508573#11 72508573#12 72508573#13 693637397#0 693637397#1 89478572#9 889999539 89478572#0 89478572#1 89478572#2 89478572#3 75416306#0 75416306#1 75416306#2 75416306#3 75416306#4 75416306#5 75416306#6 75416306#7 75416306#8 75416306#10"/>
    </vehicle>
    <vehicle id="16" type="passenger" depart="16.00">
        <route edges="564511809#1 890586227#0 890586227#1 -147379108#4 70200198#0 70200198#2 70200192#1 70200192#2 70200192#3 70200192#4 70200192#5 70200192#6 890738229#4"/>
    </vehicle>
    <vehicle id="17" type="passenger" depart="17.00">
        <route edges="220996670#0 220996670#1 -220996670#1 -220996670#0 -563505758 -147419852#3 -147419852#2 -147419852#1 -147419852#0 -69416763#1 -69416763#0 69416762#0 69416762#1 69416762#2 890063336#8 -533682528#7 -533682528#6 -533682528#5 -533682528#4 -533682528#3 -533682528#2 -533682528#1 -533682528#0 689691699#0 689691699#1 689691699#2"/>
    </vehicle>
    <vehicle id="18" type="passenger" depart="18.00">
        <route edges="77680543#4 70200195#3 70200195#4 70200195#5 70200195#6 70200195#7 70200195#8 70200195#9 70200195#10 70200195#11 70200195#12"/>
    </vehicle>
    <vehicle id="19" type="passenger" depart="19.00">
        <route edges="77873286#6 77873286#7 77674950#6 77674950#7 77674950#8 77674950#9 447326496#0 447326496#1 447326496#2 447326496#3 447326496#4 447326496#5 89478572#7 89478572#8 89478572#9 889999539 89478572#0 89478572#1 89478572#2 72644721#0 72644721#1 72644721#2 72644721#3 72644721#4 72644721#5 72644721#6 72644721#7 -75259402#2 -75259402#1 -75259402#0 -691836138#1 -691836138#0 70200195#6 564511809#0 564511809#1 70056689#16 70056689#17 70056689#18 70056689#19 890063336#2 890063336#3 890063336#4 890063336#5 85701995#1 69416762#2"/>
    </vehicle>
    <vehicle id="20" type="passenger" depart="20.00">
        <route edges="75259402#2 -72644721#7 -72644721#6 -72644721#5 -72644721#4 -72644721#3 -72644721#2 -72644721#1 -72644721#0 89478572#3 89478572#4 89478572#5 89478572#6 89478572#7 75679299#0 75679299#1 693637403 693637406#1 693637406#2 693637406#3 FEEC 693637406#10 693637406#11 693637406#12 693637406#13 693637406#14 693637406#15 693637406#16 906065938 1013410331 329703619#0 329703619#2 537250022 329703620#2 329703621#0 329703621#1 329703621#2 329703621#3 329703621#4 -329703621#4 -329703621#3 -329703621#2"/>
    </vehicle>
    <vehicle id="21" type="passenger" depart="21.00">
        <route edges="-78684176#0 -147419852#0 220996673 89430987#0 89430987#1 -147419826#5 89431164#0 -89431163#1 -89431163#0"/>
    </vehicle>
    <vehicle id="22" type="passenger" depart="22.00">
        <route edges="-563505758 -147419852#3 -147419852#2 -147419852#1 -147419852#0 -69416763#1 -69416763#0 69416762#0 69416762#1 69416762#2 890063336#8 -533682528#7 -533682528#6 -533682528#5 -533682528#4 -533682528#3 -533682528#2 -533682528#1 -533682528#0 689691699#0 689691699#1 365374001 689691698#0 689691698#1 689691698#2 689691698#3 689691698#4 689691698#5 70080980#1 70080980#2 70080980#3 70080980#4 70080980#5 70080980#6 70080979#4 85631070 563505765#0 563505765#1 563505765#2 563505765#3 563505765#4 563505765#5 563505765#6 563505765#7 -147412859#2 -85631065#0"/>
    </vehicle>
    <vehicle id="23" type="passenger" depart="23.00">
        <route edges="-69012634#3 -69012634#2 -69012634#1 -69012634#0 689691698#2 689691698#3 689691698#4 689691698#5 689691698#7 689691698#8 689691698#9 689691698#10 689691698#11 689691698#12 689691698#13 689691698#14 -179051712#4 -179051712#3 -179051712#2 -179051712#1 -179051712#0 890556455#1 89478571#1 89478571#2 89478571#3 69321368#0 69321368#1 69321368#2 69321368#3 89478572#1 89478572#2 89478572#3 89478572#4 89478572#5 89478572#6 89478572#7 75679299#0 75679299#1 693637403 693637406#1 693637406#2 693637406#3 FEEC 693637406#10 693637406#11 693637406#12 693637406#13 693637406#14 693637406#15 693637406#16 906065938 1013410331 329703619#0 329703619#2 329703619#3 535556337#6 535556337#7 535556339#0 535556339#1 535556339#2 535556339#3 535556339#4 1046248579#0 1046248579#1 1046248579#2 -1203381725 -889993133#1"/>
    </vehicle>
    <vehicle id="24" type="passenger" depart="24.00">
        <route edges="70200197#4 -70200197#4 -70200197#3 -70200197#2 -70200197#1 147379501 890556455#1 89478571#1 89478571#2 89478571#3 89478571#4 89478571#5 89478571#6 89478571#7 269853395#0 269853395#1 269853395#2 693637326#1 890559266#0 890559266#1 890559266#2 75679292#4 75679292#5 75679292#6 -447326048#6 -447326048#5 -447326048#2 -447326048#1 75679309#1 -447326319#2 -447326319#1 -447326319#0 183876531#0 183876531#1 183876531#2"/>
    </vehicle>
    <vehicle id="25" type="passenger" depart="25.00">
        <route edges="183876531#0 183876531#1 183876531#2 183876531#3 183876531#4 183876531#6 183876531#7 75679292#2 890559265#0 890559265#1 890559265#2 890559265#3 75679284#0 75679284#1 693637327#1 693637327#2 889999537#0 889999537#1 89478571#1 70056689#0 70056689#1 70056689#2 70056689#3 70056689#4 70056689#5 70056689#6 70056689#7 70056689#8 70056689#9 70056689#10 70056689#11 70056689#12 70056689#13 70056689#14 70056689#16 70056689#17 183658213#0 183658213#1 -77680543#4 -77680543#3 -77680543#2 -77680543#1"/>
    </vehicle>
    <vehicle id="26" type="passenger" depart="26.00">
        <route edges="-85701991 -69416763#1 -69416763#0 69416762#0 69416762#1 69416762#2 890063336#8 -533682528#7 -533682528#6 -533682528#5 -533682528#4 -533682528#3 -533682528#2 -533682528#1 -533682528#0 689691699#0 689691699#1 365374001 689691698#0 689691698#1 689691698#2 689691698#3 689691698#4 689691698#5 70080980#1 70080980#2 70080980#3 70080980#4 70080980#5 70080980#6 70080979#4 70080979#5 70080979#6 70080979#7 77790788#0 77790788#1 85631060#0 -85631065#6 88141324#1"/>
    </vehicle>
    <vehicle id="27" type="passenger" depart="27.00">
        <route edges="72508571#1 75413343#1 75413329#1 75413329#2 147419849#8 147419849#9 89478572#5 89478572#6 89478572#7 89478572#8 89478572#9 889999539 89478572#0 89478572#1 89478572#2 72644721#0 72644721#1 -72644726#2 -72644726#1 -72644726#0 70200195#18 563505738#0 563505738#1 70056689#4 70056689#5 70056689#6 -70056691#2 -70056691#1 -70056691#0 70200192#2"/>
    </vehicle>
    <vehicle id="28" type="passenger" depart="28.00">
        <route edges="-75259400#5 75259406#2 -72644721#2 -72644721#1 -75413339#0 75416306#1"/>
    </vehicle>
    <vehicle id="29" type="passenger" depart="29.00">
        <route edges="-72644726#0 70200195#18 70200195#19 70200195#20 70200195#21 70200195#22 70200195#23 89478571#3 89478571#4 89478571#5 89478571#6 89478571#7 269853395#0 269853395#1 269853395#2 693637326#1 890559266#0 890559266#1 890559266#2 75679292#4 75679292#5 75679292#6 75679292#1 -183876531#7 -183876531#6 -183876531#4 -183876531#3 -183876531#2 -183876531#1 -183876531#0 447326319#0 447326319#1 447326319#2 447326319#3 447326319#4 447326321#0 447326321#1 237036477#0 237036477#1 237036477#2 237036477#4 237036477#5 237036477#6 237036477#7 237036477#8 237036477#10 237036477#11 237036477#12 237036477#13 237036477#14 237036477#15"/>
    </vehicle>
    <vehicle id="30" type="passenger" depart="30.00">
        <route edges="90743683#3 -90743683#3 -90743683#2 -90743683#1 -90743683#0 147419849#7 147419849#8 147419849#9 89478572#5 89478572#6 89478572#7 89478572#8 89478572#9 889999539 89478572#0 89478572#1 89478572#2 72644721#0 72644721#1 -72644726#2 -72644726#1 -72644726#0 70200195#18 563505738#0 563505738#1 70056689#4 70056689#5 -147379107#2 -147379107#1 70200199#4"/>
    </vehicle>
    <vehicle id="31" type="passenger" depart="31.00">
        <route edges="69012634#2 69012634#3 69012634#4 -69416764#1 -69416764#0 533682528#1 533682528#2 533682528#3 533682528#4 533682528#5 533682528#6 533682528#7 183876535#0 183876535#3 183876535#4 183876535#5 183876535#7 70200195#2 70200195#3 70200195#4 890015553 691836138#1 75259402#0 75259400#0 75259400#1 75259400#2 75259400#3 72641085#2 72641085#3 72644721#4"/>
    </vehicle>
    <vehicle id="32" type="passenger" depart="32.00">
        <route edges="77781343#2 77781343#3 77781343#4 689691698#7 689691698#8 689691698#9 689691698#10 689691698#11 689691698#12 689691698#13 689691698#14 -179051712#4 -179051712#3 -179051712#2 -179051712#1 -179051712#0 890556455#1 89478571#1 89478571#2 89478571#3 69321368#0 69321368#1 69321368#2 69321368#3 89478572#1 89478572#2 89478572#3 89478572#4 89478572#5 89478572#6 89478572#7 75679299#0 75679299#1 693637403 693637406#1 693637406#2 693637406#3 FEEC 693637406#10 693637406#11 693637406#12 693637406#13 693637406#14 693637406#15 693637406#16 906065938 1013410331 329703619#0 329703619#2 329703619#3 535556337#6 75701376#0 75701376#1 75701376#2 75701376#3"/>
    </vehicle>
    <vehicle id="33" type="passenger" depart="33.00">
        <route edges="-78684176#2 78684176#2 78684176#3 -78684178#3 -78684178#2 -78684178#1 -78684178#0 -533682528#6 -533682528#5 -533682528#4 -533682528#3 -533682528#2 -533682528#1 -533682528#0 689691699#0 689691699#1 365374001 689691698#0 689691698#1 689691698#2 689691698#3 689691698#4 689691698#5 689691698#7 689691698#8 689691698#9 689691698#10 689691698#11 689691698#12 689691698#13 689691698#14 -179051712#4 -179051712#3"/>
    </vehicle>
    <vehicle id="34" type="passenger" depart="34.00">
        <route edges="1046248579#1 -1046248579#1 -1046248579#0 535556338#0 535556338#1 535556338#2 535556337#2 535556337#3 535556337#4 329703620#0 329703620#1 329703620#2 329703620#3 329703620#4 329703620#5 329703620#7 1013410330 1013410329 72508573#0 72508573#1 72508573#2 72508573#3 72508573#4 72508573#5 72508573#6 72508573#10 72508573#11 72508573#12 72508573#13 693637397#0 693637397#1 89478572#9 889999539 89478572#0 89478572#1 89478572#2 72644721#0 72644721#1 72644721#2 72644721#3 72644721#4 72644721#5 72644721#6 72644721#7 -75259402#2 -75259402#1 -75259402#0 -691836138#1 -691836138#0 70200195#6 564511809#0 564511809#1 70056689#16 70056689#17 70056689#18 70056689#19 890063336#2 890063336#3 890063336#4 890063336#5 85701995#1 -85701996#0"/>
    </vehicle>
    <vehicle id="35" type="passenger" depart="35.00">
        <route edges="-77680543#1 -77680543#0 77680541#0 77680541#1 564511810 75413341#2 75413341#3 564511814 75413342 -72644721#7 -72644721#6 -72644721#5 -72644721#4 -72644721#3 -72644721#2 -72644721#1 -72644721#0 89478572#3 89478572#4 89478572#5 89478572#6 89478572#7 75679299#0 75679299#1 693637403 693637406#1 693637406#2 693637406#3 FEEC 693637406#10 693637406#11 693637406#12 693637406#13 693637406#14 693637406#15 693637406#16 906065938 1013410331 329703619#0 329703619#2 329703619#3 535556337#6 535556337#7 535556339#0 535556339#1 535556339#2 535556339#3 535556339#4 1046248579#0 1046248579#1 1046248579#2 -1203381725 889993132#0"/>
    </vehicle>
    <vehicle id="36" type="passenger" depart="36.00">
        <route edges="77881557#6 77881557#7 77881557#8 77881557#9 264904736 769466394#0 769466394#1 769466394#2 769466394#3 769466394#4 769466394#5 769466394#7 769466394#8 769466394#10 952984038#0 952984038#1 952984038#2 -75701376#7 -75701376#6 -75701376#5 -75701376#4 -75701376#3 -75701376#2 -75701376#1 -75701376#0 535556337#7 535556339#0 535556339#1 535556339#2 535556339#3 535556339#4 1046248579#0 1046248579#1 1046248579#2 -1203381725 -889993133#1 -889993133#0 -1054468192#3 -1054468192#2 -1054468192#1 -1054468192#0 1054468193#0 1054468193#1 1054468195#1 1054468187#0 1054468187#1 1054468187#2 1054468188#0"/>
    </vehicle>
    <vehicle id="37" type="passenger" depart="37.00">
        <route edges="72508573#3 72508573#4 72508573#5 75679325#0 75679325#1 563505769#3 563505769#4 563505769#5 563505769#6 563505769#8 563505769#9 563505769#10 563505769#13 563505769#15 563505769#16 563505769#18 563505769#19 563505769#20 563505767#1 237036477#0 237036477#1 237036477#2 95011158 75679256#10 906049246 IC 75701374#1 75701374#2 75701374#4 278132384#0 278132384#1"/>
    </vehicle>
    <vehicle id="38" type="passenger" depart="38.00">
        <route edges="85701978#2 -147419852#2 -147419852#1 -147419852#0 85701991 85701990#0 85701990#1 430268897 183876535#5 183876535#7 70200195#2 70200195#3 70200195#4 890015553 691836138#1 75259402#0 75259402#1 75259402#2 -72644721#7 -72644721#6 -72644721#5 -72644721#4 -72644721#3 -72644721#2 -72644721#1 -72644721#0 89478572#3 89478572#4 89478572#5 89478572#6 89478572#7 75679299#0 75679299#1 693637403 693637406#1 693637406#2 693637406#3 FEEC 693637406#10 693637406#11 693637406#12 693637406#13 693637406#14 693637406#15 693637406#16 906065938 1013410331 329703619#0 329703619#2 329703619#3 535556337#6 535556337#7 535556337#1 535556337#2 386834059#0 386834059#1 386834059#5 386834059#7 841305892 535558322#0 535558322#1 535558320#0 535558320#1 535558320#2"/>
    </vehicle>
    <vehicle id="39" type="passenger" depart="39.00">
        <route edges="-85701988#4 -85701988#3 85701983#0 85701983#1 85701984#1 -533682528#3 -533682528#2 -533682528#1 -533682528#0 689691699#0 689691699#1 365374001 689691698#0 689691698#1 689691698#2 689691698#3 689691698#4 689691698#5 70080980#1 70080980#2 70080980#3 70080980#4 70080980#5 70080980#6 70080979#4 70080979#5 70080979#6 70080979#7 77790788#0 -147412853#4 -147412853#3 -147412853#1 -85631072#11 -85631072#10 -85631072#9"/>
    </vehicle>
    <vehicle id="40" type="passenger" depart="40.00">
        <route edges="69321368#1 69321368#2 69321368#3 89478572#1 89478572#2 72644721#0 72644721#1 72644721#2 72644721#3 72644721#4 72644721#5 72644721#6 72644721#7 -75259402#2 -75259402#1 -75259402#0 -691836138#1 -691836138#0 70200195#6 564511809#0 564511809#1 70056689#16 70056689#17 70056689#18 70056689#19 890063336#2 890063336#3 890063336#4 890063336#5 890063336#8 -533682528#7 -533682528#6 -533682528#5 85701985#0 85701985#1 85701985#2 -85701988#4"/>
    </vehicle>
    <vehicle id="41" type="passenger" depart="41.00">
        <route edges="69830501#2 69830501#3 88141326#1 -85631072#9 -85631072#8 -85631072#5 -85631072#4 -85631072#3 -85631072#2 -85631072#1 -85631072#0 85631072#0"/>
    </vehicle>
    <vehicle id="42" type="passenger" depart="42.00">
        <route edges="269853395#0 269853395#1 269853395#2 693637326#1 890559266#0 890559266#1 890559266#2 75679292#4 75679292#5 75679292#6 75679292#1 75679292#2 890559265#0 890559265#1 890559265#2 890559265#3 75679284#0 75679284#1 693637327#1 693637327#2 889999537#0 890556454 179051712#0 179051712#1 179051712#2 179051712#3 179051712#4 77712876#0 77712876#1 77712876#2 77712876#3 77712876#4 539414316 70080980#2 70080980#3 70080980#4 70080980#5 70080980#6 70080979#4 70080979#5 70080979#6 70080979#7 70080979#8 70080979#9 70080979#10 70080979#11 70080979#12 70080979#1 77783516#0 -77783501#1"/>
    </vehicle>
    <vehicle id="43" type="passenger" depart="43.00">
        <route edges="970808982 -856607131#6 -856607131#5 -856607131#4 -856607131#3 -856607131#2 -911130020 -1075116935#0 -78684176#3 -78684176#2 -78684176#1 -78684176#0 -147419852#0 85701991 563505742 -89530503#2 -77948714#1 -563505756#1 78592298#0 563505751#2"/>
    </vehicle>
    <vehicle id="44" type="passenger" depart="44.00">
        <route edges="-563505769#2 -563505769#1 563505768#1 563505768#2 693637406#1 693637406#2 693637406#3 FEEC 693637406#10 693637406#11 693637406#12 693637406#13 693637406#14 693637406#15 693637406#16 906065938 1013410331 329703619#0 329703619#2 537250022 329703620#2 329703621#0 329703621#1 329703621#2 329703621#3 329703621#4 -329703621#4"/>
    </vehicle>
    <vehicle id="45" type="passenger" depart="45.00">
        <route edges="-70056691#1 -70200199#2 -70200199#1 -70200199#0 -70200198#0 147379108#4 890586228 564511808#0 564511808#1 70200195#6"/>
    </vehicle>
    <vehicle id="46" type="passenger" depart="46.00">
        <route edges="77652221 -664968457#1 -664968457#0 689691698#14 -179051712#4 -179051712#3 -179051712#2 -179051712#1 -179051712#0 890556455#1 89478571#1 89478571#2 89478571#3 69321368#0 69321368#1 69321368#2 69321368#3 89478572#1 89478572#2 89478572#3 89478572#4 89478572#5 89478572#6 89478572#7 75679299#0 75679299#1 693637403 693637406#1 693637406#2 693637406#3 FEEC 693637406#10 693637406#11 693637406#12 693637406#13 693637406#14 693637406#15 693637406#16 906065938 1013410331 329703619#0 329703619#2 329703619#3 535556337#6 535556337#7 535556337#1 535556337#2 386834059#0 386834059#1 386834060#7 386834060#8"/>
    </vehicle>
    <vehicle id="47" type="passenger" depart="47.00">
        <route edges="-533682528#6 -533682528#5 533682528#5 533682528#6 533682528#7 183876535#0 183876535#3 183876535#4 183876535#5 183876535#7 70200195#2 70200195#3 70200195#4 890015553 691836138#1 75259402#0 75259402#1 75259402#2 -72644721#7 -72644721#6 -72644721#5 -72644721#4 -72644721#3 -72644721#2 -72644721#1 -72644721#0 89478572#3 89478572#4 89478572#5 89478572#6 89478572#7 75679299#0 75679299#1 693637403 693637406#1 693637406#2 693637406#3 FEEC 693637406#10 693637406#11 693637406#12 693637406#13 693637406#14 693637406#15 693637406#16 906065938 1013410331 535719980 75679256#0 75679256#1 75679256#2 75679256#3 75679256#4 75679256#5 562096884 237036477#11 237036477#12 237036477#13 237036477#14 237036477#15 237036477#16 237036477#17 237036477#18 237036477#19"/>
    </vehicle>
    <vehicle id="48" type="passenger" depart="48.00">
        <route edges="970642925 -970630999#0 -856607131#3 -856607131#2 -911130020 -1075116935#0 -78684178#3 -85701997#2 69416762#1 69416762#2 183876535#3 183876535#4 183876535#5 183876535#7 70200195#2 70200195#3 70200195#4 70200195#5 70200195#6 70200195#7 70200195#8 70200195#9 70200195#10 70200195#11 70200195#12 70200195#13 70200195#14 70200195#15 70200195#16 70200195#17 70200195#18 70200195#19 70200195#20 70200195#21 70200195#22 70200195#23 89478571#3 89478571#4 89478571#5 89478571#6 89478571#7 269853395#0 269853395#1 269853395#2 77670431#2 77670431#3 77670431#4 72508815#14 72508815#15 72508815#16 72508815#17 72508815#18 72508815#19 72508816#1 72508816#2 72508816#4 72508816#5 72508816#6 563505769#1 563505769#2 563505769#3 563505769#4"/>
    </vehicle>
    <vehicle id="50" type="passenger" depart="50.00">
        <route edges="-147379108#0 -563505737#0 70056689#8 563505736#0 563505736#1 70200195#14 70200195#15 72641085#0 72641085#1 72641085#2 72641085#3 -72644721#3 -72644721#2 -72644721#1 75413339#2"/>
    </vehicle>
    <vehicle id="51" type="passenger" depart="51.00">
        <route edges="72644044#4 -72644044#4 -72644044#3 -72644044#2 70056689#12 70056689#13 70056689#14 70056689#16 70056689#17 70056689#18 70056689#19 70056689#20 183876535#7 890063337#0 539685790#1 563505747#2 627798939#0"/>
    </vehicle>
    <vehicle id="52" type="passenger" depart="52.00">
        <route edges="-85701991 -69416763#1 76845626#0 85701990#1 430268897 183876535#5 183876535#7 70200195#2 70200195#3 70200195#4 70200195#5 70200195#6 564511809#0 564511809#1 890586227#0 890586227#1 -147379108#4 70200198#0 70200199#0 70200199#1 70200199#2 70200199#3 70200199#4 70200199#5 70200199#6"/>
    </vehicle>
    <vehicle id="53" type="passenger" depart="53.00">
        <route edges="-70056694#1 890593764 689691698#9 689691698#10 689691698#11 689691698#12 689691698#13 689691698#14 -179051712#4 -179051712#3 -179051712#2 -179051712#1 -179051712#0 890556455#1 89478571#1 89478571#2 89478571#3 89478571#4 89478571#5 89478571#6 89478571#7 269853395#0 269853395#1 269853395#2 693637326#1 890559266#0 890559266#1 890559266#2 75679292#4 75679292#5 75679292#6 -447326048#6 -447326048#5 447326050#1"/>
    </vehicle>
    <vehicle id="54" type="passenger" depart="54.00">
        <route edges="533682528#2 533682528#3 533682528#4 533682528#5 533682528#6 533682528#7 183876535#0 183876535#3 183876535#4 183876535#5 183876535#7 890063337#0 890063337#2 -539691352#2 -539691352#1 -539691352#0 547113476 890076349#0 890076349#2"/>
    </vehicle>
    <vehicle id="55" type="passenger" depart="55.00">
        <route edges="77881557#5 77881557#6 77881557#7 77881557#8 77881557#9 75413340#0 75413340#1 447326496#0 447326496#1 447326496#2 447326496#3 447326496#4 447326496#5 89478572#7 89478572#8 89478572#9 889999539 89478572#0 89478572#1 89478572#2 72644721#0 72644721#1 72644721#2 72644721#3 72644721#4 72644721#5 72644721#6 72644721#7 -75259402#2 -75259402#1 -75259402#0 -691836138#1 -691836138#0 70200195#6 564511809#0 564511809#1 70056689#16 70056689#17 70056689#18 70056689#19 890063336#2 890063336#3 890063336#4 890063336#5 890063336#8 -533682528#7 -533682528#6 -533682528#5 85701985#0 85701985#1 85701985#2 -85701988#4 -85701989"/>
    </vehicle>
    <vehicle id="56" type="passenger" depart="56.00">
        <route edges="563505739#0 563505739#1 70200195#20 70200195#21 70080981#0 -75259405#7"/>
    </vehicle>
    <vehicle id="58" type="passenger" depart="58.00">
        <route edges="-89530503#0 563505753 890020478#3 563505747#0 563505746#0 539691353#4 539691353#5 539691353#6 539691353#7 539691353#8 70200195#2 70200195#3 70200195#4 70200195#5 70200195#6 564511809#0 564511809#1 890586227#0 890586227#1 -147379108#4 70200198#0 70200199#0 70200199#1 70200199#2 70200199#3"/>
    </vehicle>
    <vehicle id="59" type="passenger" depart="59.00">
        <route edges="70080980#6 70080979#4 70080979#5 70080979#6 70080979#7 70080979#8 70080979#9 70080979#10 70080979#11 70080979#12 70080979#1 70080979#2 77781343#0 77781343#1 77781343#2 77781343#3 77781343#4 689691698#7 70056694#0 70056694#1 70056694#2 70056694#3 70056694#4 -70200192#3 -70200192#2 -70200192#1 -70200198#2 72644044#0 72644044#1 72644044#2 72644044#3 -72644044#3 -72644044#2"/>
    </vehicle>