<?xml version="1.0" encoding="UTF-8"?>
<additional>
<poi id="home" x="418.0089099121094" y="206.95012802124023" color="0,255,0" layer="30"/>
<poi id="work" x="402.50240203857425" y="345.79523986816406" color="0,255,0" layer="30"/>
<poi id="school" x="415.53423950195315" y="459.8399938964844" color="0,255,0" layer="30"/>
<poi id="bar" x="491.6728503417969" y="210.63961166381836" color="0,255,0" layer="30"/>
<poi id="gym" x="277.02156040191653" y="199.38019317626953" color="0,255,0" layer="30"/>
<poi id="theater" x="198.80245086669925" y="232.6977247619629" color="0,255,0" layer="30"/>
<poi id="cafe" x="169.47654602050784" y="272.6614934825897" color="0,255,0" layer="30"/>
<poi id="park" x="265.717486114502" y="258.33498710632324" color="0,255,0" layer="30"/>
<poi id="university" x="373.17638275146487" y="261.6315774345398" color="0,255,0" layer="30"/>
<poi id="gas_station" x="273.0388676834107" y="100.71197265625" color="0,255,0" layer="30"/>
<poi id="restaurant" x="141.40980407714846" y="169.73903411865234" color="0,255,0" layer="30"/>
</additional>
