<?xml version="1.0" encoding="UTF-8"?>

<!-- generated on 2025-06-02 14:50:22.607296 by generateParkingAreas.py UNKNOWN
<configuration>
    <net-file value="town03/osm.net.xml"/>
    <output-file value="town03/park.add.xml"/>
    <verbose value="True"/>
</configuration>
-->

<additional xmlns:xsi="http://www.w3.org/2001/XMLSchema-instance" xsi:noNamespaceSchemaLocation="http://sumo.dlr.de/xsd/additional_file.xsd">
</additional>
