<?xml version='1.0' encoding='utf-8'?>
<routes xmlns:xsi="http://www.w3.org/2001/XMLSchema-instance" xsi:noNamespaceSchemaLocation="http://sumo.dlr.de/xsd/routes_file.xsd">
    <vType id="v_aggressive4" carFollowModel="EIDM" laneChangeModel="SL2015" minGap="0.54" accel="2.61" decel="2.55" emergencyDecel="6.62" startupDelay="1.12" tau="1.08" maxSpeed="59.67" speedFactor="0.84" ccoolness="0.26" sigmaleader="0.4" sigmagap="0.32" sigmaerror="0.47" jerkmax="2.7" epsilonacc="1.34" taccmax="1.13" lcStrategic="0.68" lcCooperative="0.23" lcSpeedGain="1.53" lcKeepRight="0.29" lcOvertakeRight="0.71" lcSpeedGainLookahead="2.27" lcOvertakeDeltaSpeedFactor="0.89" lcPushy="0.76" lcAssertive="3.25" lcImpatience="0.62" lcTimeToImpatience="3.25" lcLaneDiscipline="0.39" lcSigma="0.33" lcAccelLat="1.48" probability="0.12050957012175274">
		<param key="device.rerouting.probability" value="1.0" />
		<param key="device.rerouting.adaptation-steps" value="18" />
		<param key="device.rerouting.adaptation-interval" value="10" />
	</vType>
<vType id="v_aggressive3" carFollowModel="EIDM" laneChangeModel="SL2015" minGap="0.77" accel="3.1" decel="2.36" emergencyDecel="6.74" startupDelay="1.0" tau="1.12" maxSpeed="58.18" speedFactor="0.9" ccoolness="0.33" sigmaleader="0.37" sigmagap="0.43" sigmaerror="0.44" jerkmax="2.72" epsilonacc="1.31" taccmax="1.13" lcStrategic="0.67" lcCooperative="0.44" lcSpeedGain="1.47" lcKeepRight="0.38" lcOvertakeRight="0.76" lcSpeedGainLookahead="3.87" lcOvertakeDeltaSpeedFactor="0.85" lcPushy="0.66" lcAssertive="3.11" lcImpatience="0.5" lcTimeToImpatience="2.47" lcLaneDiscipline="0.24" lcSigma="0.41" lcAccelLat="1.6" probability="0.4925768369135801">
		<param key="device.rerouting.probability" value="1.0" />
		<param key="device.rerouting.adaptation-steps" value="18" />
		<param key="device.rerouting.adaptation-interval" value="10" />
	</vType>
	<vType id="v_aggressive2" carFollowModel="EIDM" laneChangeModel="SL2015" minGap="1.0" accel="2.42" decel="3.71" emergencyDecel="7.38" startupDelay="1.45" tau="0.47" maxSpeed="63.8" speedFactor="0.93" ccoolness="0.34" sigmaleader="0.4" sigmagap="0.38" sigmaerror="0.45" jerkmax="3.48" epsilonacc="1.0" taccmax="0.56" lcStrategic="0.51" lcCooperative="0.33" lcSpeedGain="1.18" lcKeepRight="0.27" lcOvertakeRight="0.64" lcSpeedGainLookahead="2.64" lcOvertakeDeltaSpeedFactor="0.88" lcPushy="0.63" lcAssertive="2.38" lcImpatience="0.7" lcTimeToImpatience="2.01" lcLaneDiscipline="0.44" lcSigma="0.41" lcAccelLat="1.14" probability="0.0679019895242675">
		<param key="device.rerouting.probability" value="1.0" />
		<param key="device.rerouting.adaptation-steps" value="18" />
		<param key="device.rerouting.adaptation-interval" value="10" />
	</vType>
	<vType id="v_aggressive1" carFollowModel="EIDM" laneChangeModel="SL2015" minGap="0.73" accel="3.42" decel="3.79" emergencyDecel="6.96" startupDelay="0.94" tau="1.04" maxSpeed="67.31" speedFactor="0.72" ccoolness="0.28" sigmaleader="0.32" sigmagap="0.36" sigmaerror="0.37" jerkmax="3.1" epsilonacc="1.45" taccmax="0.76" lcStrategic="0.69" lcCooperative="0.44" lcSpeedGain="1.4" lcKeepRight="0.3" lcOvertakeRight="0.66" lcSpeedGainLookahead="2.97" lcOvertakeDeltaSpeedFactor="0.87" lcPushy="0.6" lcAssertive="3.89" lcImpatience="0.47" lcTimeToImpatience="2.58" lcLaneDiscipline="0.36" lcSigma="0.47" lcAccelLat="0.9" probability="0.16623704974501283">
		<param key="device.rerouting.probability" value="1.0" />
		<param key="device.rerouting.adaptation-steps" value="18" />
		<param key="device.rerouting.adaptation-interval" value="10" />
	</vType>
	<vType id="v_aggressive0" carFollowModel="EIDM" laneChangeModel="SL2015" minGap="1.02" accel="2.66" decel="3.11" emergencyDecel="6.47" startupDelay="1.16" tau="0.8" maxSpeed="67.32" speedFactor="0.91" ccoolness="0.3" sigmaleader="0.37" sigmagap="0.39" sigmaerror="0.34" jerkmax="1.77" epsilonacc="1.82" taccmax="1.24" lcStrategic="0.58" lcCooperative="0.43" lcSpeedGain="0.77" lcKeepRight="0.32" lcOvertakeRight="0.55" lcSpeedGainLookahead="2.54" lcOvertakeDeltaSpeedFactor="0.84" lcPushy="0.5" lcAssertive="3.49" lcImpatience="0.72" lcTimeToImpatience="2.63" lcLaneDiscipline="0.33" lcSigma="0.4" lcAccelLat="1.46" probability="0.15277455369538676">
		<param key="device.rerouting.probability" value="1.0" />
		<param key="device.rerouting.adaptation-steps" value="18" />
		<param key="device.rerouting.adaptation-interval" value="10" />
	</vType>
	<vType id="v_normal4" carFollowModel="EIDM" laneChangeModel="SL2015" minGap="1.77" accel="1.64" decel="1.48" emergencyDecel="5.57" startupDelay="0.89" tau="2.02" maxSpeed="42.44" speedFactor="0.88" ccoolness="0.62" sigmaleader="0.19" sigmagap="0.25" sigmaerror="0.15" jerkmax="1.43" epsilonacc="0.74" taccmax="1.49" lcStrategic="0.23" lcCooperative="0.74" lcSpeedGain="0.86" lcKeepRight="0.6" lcOvertakeRight="0.24" lcSpeedGainLookahead="1.63" lcOvertakeDeltaSpeedFactor="0.59" lcPushy="0.11" lcAssertive="1.89" lcImpatience="0.24" lcTimeToImpatience="8.34" lcLaneDiscipline="0.65" lcSigma="0.25" lcAccelLat="0.58" probability="0.1596569637044953">
		<param key="device.rerouting.probability" value="1.0" />
		<param key="device.rerouting.adaptation-steps" value="18" />
		<param key="device.rerouting.adaptation-interval" value="10" />
	</vType>
<vType id="v_normal3" carFollowModel="EIDM" laneChangeModel="SL2015" minGap="1.98" accel="1.34" decel="1.43" emergencyDecel="5.51" startupDelay="1.14" tau="2.26" maxSpeed="43.17" speedFactor="0.8" ccoolness="0.61" sigmaleader="0.15" sigmagap="0.26" sigmaerror="0.28" jerkmax="1.43" epsilonacc="0.98" taccmax="1.16" lcStrategic="0.21" lcCooperative="0.66" lcSpeedGain="0.82" lcKeepRight="0.74" lcOvertakeRight="0.27" lcSpeedGainLookahead="1.49" lcOvertakeDeltaSpeedFactor="0.68" lcPushy="0.15" lcAssertive="1.49" lcImpatience="0.15" lcTimeToImpatience="5.56" lcLaneDiscipline="0.64" lcSigma="0.18" lcAccelLat="0.85" probability="0.204409582294942">
		<param key="device.rerouting.probability" value="1.0" />
		<param key="device.rerouting.adaptation-steps" value="18" />
		<param key="device.rerouting.adaptation-interval" value="10" />
	</vType>
	<vType id="v_normal2" carFollowModel="EIDM" laneChangeModel="SL2015" minGap="2.08" accel="1.08" decel="1.53" emergencyDecel="5.93" startupDelay="1.62" tau="2.09" maxSpeed="45.63" speedFactor="0.83" ccoolness="0.57" sigmaleader="0.17" sigmagap="0.2" sigmaerror="0.27" jerkmax="1.69" epsilonacc="0.92" taccmax="1.01" lcStrategic="0.16" lcCooperative="0.65" lcSpeedGain="0.97" lcKeepRight="0.66" lcOvertakeRight="0.16" lcSpeedGainLookahead="1.95" lcOvertakeDeltaSpeedFactor="0.65" lcPushy="0.17" lcAssertive="1.54" lcImpatience="0.22" lcTimeToImpatience="6.18" lcLaneDiscipline="0.62" lcSigma="0.19" lcAccelLat="0.82" probability="0.21955744643973552">
		<param key="device.rerouting.probability" value="1.0" />
		<param key="device.rerouting.adaptation-steps" value="18" />
		<param key="device.rerouting.adaptation-interval" value="10" />
	</vType>
	<vType id="v_normal1" carFollowModel="EIDM" laneChangeModel="SL2015" minGap="1.88" accel="1.44" decel="1.29" emergencyDecel="4.95" startupDelay="1.26" tau="2.11" maxSpeed="45.7" speedFactor="0.8" ccoolness="0.63" sigmaleader="0.24" sigmagap="0.2" sigmaerror="0.14" jerkmax="1.77" epsilonacc="0.64" taccmax="1.43" lcStrategic="0.23" lcCooperative="0.56" lcSpeedGain="0.66" lcKeepRight="0.65" lcOvertakeRight="0.22" lcSpeedGainLookahead="1.95" lcOvertakeDeltaSpeedFactor="0.7" lcPushy="0.17" lcAssertive="1.57" lcImpatience="0.29" lcTimeToImpatience="6.78" lcLaneDiscipline="0.62" lcSigma="0.16" lcAccelLat="0.93" probability="0.2996049076047437">
		<param key="device.rerouting.probability" value="1.0" />
		<param key="device.rerouting.adaptation-steps" value="18" />
		<param key="device.rerouting.adaptation-interval" value="10" />
	</vType>
	<vType id="v_normal0" carFollowModel="EIDM" laneChangeModel="SL2015" minGap="2.03" accel="1.14" decel="1.4" emergencyDecel="5.52" startupDelay="1.69" tau="2.02" maxSpeed="47.28" speedFactor="0.82" ccoolness="0.58" sigmaleader="0.15" sigmagap="0.18" sigmaerror="0.19" jerkmax="1.67" epsilonacc="0.71" taccmax="1.0" lcStrategic="0.18" lcCooperative="0.69" lcSpeedGain="0.88" lcKeepRight="0.53" lcOvertakeRight="0.2" lcSpeedGainLookahead="1.43" lcOvertakeDeltaSpeedFactor="0.75" lcPushy="0.16" lcAssertive="1.3" lcImpatience="0.24" lcTimeToImpatience="9.68" lcLaneDiscipline="0.57" lcSigma="0.14" lcAccelLat="0.84" probability="0.11677109995608363">
		<param key="device.rerouting.probability" value="1.0" />
		<param key="device.rerouting.adaptation-steps" value="18" />
		<param key="device.rerouting.adaptation-interval" value="10" />
	</vType>
	<vehicle id="0" depart="0.00" type="v_normal0">
        <route edges="22 21 62 61 -13 -14 -10" />
    </vehicle>
    <vehicle id="1" depart="900.00" type="v_normal0">
        <route edges="-44 21 62 61 -13 -14 -10 -11 -36" />
    </vehicle>
    <vehicle id="2" depart="1800.00" type="v_normal3">
        <route edges="4 3 2 29" />
    </vehicle>
    <vehicle id="3" depart="2700.00" type="v_normal2">
        <route edges="68 67 66 65 -0 -1 29 -19" />
    </vehicle>
    <vehicle id="4" depart="3600.00" type="v_normal0">
        <route edges="-68 -69 -24 30 -10 -11" />
    </vehicle>
    <vehicle id="5" depart="4500.00" type="v_normal0">
        <route edges="-36 -38 -12 -13 16 -30 -76 -78#0 -78#1 -79" />
    </vehicle>
    <vehicle id="6" depart="5400.00" type="v_normal0">
        <route edges="-10 -11 -36 -38 -12 -13 16 -30 -31" />
    </vehicle>
    <vehicle id="7" depart="6300.00" type="v_normal4">
        <route edges="23 22 21 20 2 1 0" />
    </vehicle>
    <vehicle id="8" depart="7200.00" type="v_normal2">
        <route edges="-36 -38 -12 -13 -14 -10 -11 15 -28 18" />
    </vehicle>
    <vehicle id="9" depart="8100.00" type="v_normal4">
        <route edges="50#1 50#0 49 47 66 65 -0" />
    </vehicle>
    <vehicle id="10" depart="9000.00" type="v_normal3">
        <route edges="50#1 50#0 49 80 79 78#1 78#0 77 30" />
    </vehicle>
    <vehicle id="11" depart="9900.00" type="v_normal0">
        <route edges="-52 -81 -60 52 51 50#1 50#0 49 47 66 65 -0 -1 29 28 -25" />
    </vehicle>
    <vehicle id="12" depart="10800.00" type="v_normal2">
        <route edges="78#0 77 30 -10 46 8 7 6 -66 -47 -48 -50#0 -50#1 -51 -52" />
    </vehicle>
    <vehicle id="13" depart="11700.00" type="v_normal0">
        <route edges="-19 2 1 -41 -18 -29 -2" />
    </vehicle>
    <vehicle id="14" depart="12600.00" type="v_normal4">
        <route edges="61 -13 -14 -10 -11 15 -28 -29 -2 19" />
    </vehicle>
    <vehicle id="15" depart="13500.00" type="v_normal0">
        <route edges="50#1 50#0 49 80 79 78#1 78#0 77 24 4" />
    </vehicle>
    <vehicle id="16" depart="14400.00" type="v_normal2">
        <route edges="-81 -60 52 51 50#1 50#0 49 80 79" />
    </vehicle>
    <vehicle id="17" depart="15300.00" type="v_normal0">
        <route edges="-61 3 2 1" />
    </vehicle>
    <vehicle id="18" depart="16200.00" type="v_normal2">
        <route edges="52 51 50#1 50#0 49 80 79 78#1 78#0 77 24 23 22 21 20" />
    </vehicle>
    <vehicle id="19" depart="17100.00" type="v_normal0">
        <route edges="65 -0 -1 29 28 -25 -38 -12 -13 16" />
    </vehicle>
    <vehicle id="20" depart="18000.00" type="v_normal2">
        <route edges="31 30 -10 -11 -36 -38 -12" />
    </vehicle>
    <vehicle id="21" depart="18900.00" type="v_normal0">
        <route edges="-38 -12 -13 -14 -10 46 8 7 6 -66 -47" />
    </vehicle>
    <vehicle id="22" depart="19800.00" type="v_normal0">
        <route edges="-18 28 -25 -38" />
    </vehicle>
    <vehicle id="23" depart="20700.00" type="v_normal4">
        <route edges="-2 -3 -44" />
    </vehicle>
    <vehicle id="24" depart="21600.00" type="v_normal3">
        <route edges="22 21 62 -4 -24 -76 -78#0 -78#1 -79 -80 -48 -50#0 -50#1 -51 -52 -81 -60" />
    </vehicle>
    <vehicle id="25" depart="22500.00" type="v_normal3">
        <route edges="-60 52 51 50#1 50#0 49 80 79 78#1 78#0 77 -31 -32" />
    </vehicle>
    <vehicle id="26" depart="23400.00" type="v_normal4">
        <route edges="-43 -8 34 15 -28 -29 1 0 -65 -5 75" />
    </vehicle>
    <vehicle id="27" depart="24300.00" type="v_normal0">
        <route edges="23 22 21 20 2" />
    </vehicle>
    <vehicle id="28" depart="25200.00" type="v_normal3">
        <route edges="-29 -2 -3 -44 -22 -23 4" />
    </vehicle>
    <vehicle id="29" depart="26100.00" type="v_normal2">
        <route edges="-28 -29 1 -41 -18 28 -25 -61" />
    </vehicle>
    <vehicle id="30" depart="27000.00" type="v_normal1">
        <route edges="8 7 6 -66 -47 80 79 78#1 78#0 77 24 23 22" />
    </vehicle>
    <vehicle id="31" depart="27900.00" type="v_normal0">
        <route edges="1 -41 -18 28 -25 -61 3" />
    </vehicle>
    <vehicle id="32" depart="28800.00" type="v_normal4">
        <route edges="61 -13 16 -30 -76 -78#0 -78#1 -79 -80 47" />
    </vehicle>
    <vehicle id="33" depart="29700.00" type="v_normal4">
        <route edges="-38 -12 -13 -14 -10 -11" />
    </vehicle>
    <vehicle id="34" depart="30600.00" type="v_normal3">
        <route edges="-50#0 -50#1 -51 -52 -81 -60 52 51 50#1 50#0 49 80 79 78#1 78#0 77 30 -10 -11 15 -28 18 -42 -43" />
    </vehicle>
    <vehicle id="35" depart="31500.00" type="v_normal2">
        <route edges="-32 -68 -69 4 3 2 1 0 -65 -5 75" />
    </vehicle>
    <vehicle id="36" depart="32400.00" type="v_normal2">
        <route edges="66 65 -0 -1 29 28 -25 -38 -12 -13 16 -30 -76 -78#0 -78#1 -79 -80 -48 -50#0" />
    </vehicle>
    <vehicle id="37" depart="33300.00" type="v_normal4">
        <route edges="24 4 3 2 1 0 -65" />
    </vehicle>
    <vehicle id="38" depart="34200.00" type="v_normal3">
        <route edges="7 6 -66 -47 80 79 78#1 78#0 77 30 -10 -11 15 -28 18 17 -74" />
    </vehicle>
    <vehicle id="39" depart="35100.00" type="v_normal1">
        <route edges="-43 -8 34 15 -28 -29 1 -41" />
    </vehicle>
    <vehicle id="40" depart="36000.00" type="v_normal0">
        <route edges="15 -28 18 -42 -43" />
    </vehicle>
    <vehicle id="41" depart="36900.00" type="v_normal0">
        <route edges="17 -74 -75 -7 -8 34 -36 -38 -12 -13 16 -30 24 69" />
    </vehicle>
    <vehicle id="42" depart="37800.00" type="v_normal0">
        <route edges="-65 -5 -7 -8 34 -36" />
    </vehicle>
    <vehicle id="43" depart="38700.00" type="v_normal2">
        <route edges="80 79 78#1 78#0 77 -31 -58 -69 -24 -76 -78#0 -78#1 -79" />
    </vehicle>
    <vehicle id="44" depart="39600.00" type="v_normal2">
        <route edges="-19 -3 61 -13" />
    </vehicle>
    <vehicle id="45" depart="40500.00" type="v_normal2">
        <route edges="-20 62 -44 21" />
    </vehicle>
    <vehicle id="46" depart="41400.00" type="v_normal3">
        <route edges="49 80 79 78#1 78#0 77 -31 -32 -68" />
    </vehicle>
    <vehicle id="47" depart="42300.00" type="v_normal4">
        <route edges="-14 -10 -11 15 -28 -29 1 -41 -18 28 -25 -61" />
    </vehicle>
    <vehicle id="48" depart="43200.00" type="v_normal3">
        <route edges="80 79 78#1 78#0 77 -31 -58 -69 -24 -76 -78#0 -78#1 -79 -80" />
    </vehicle>
    <vehicle id="49" depart="44100.00" type="v_normal4">
        <route edges="78#1 78#0 77 24 69 68 67 66 65" />
    </vehicle>
    <vehicle id="50" depart="45000.00" type="v_normal4">
        <route edges="-1 29 18 -42 -43 -8 34" />
    </vehicle>
    <vehicle id="51" depart="45900.00" type="v_normal2">
        <route edges="29 28 -25 -38 -12 -13 16 -30 -76 -78#0 -78#1 -79 -80 -48 -50#0 -50#1 -51 -52 -81" />
    </vehicle>
    <vehicle id="52" depart="46800.00" type="v_normal4">
        <route edges="-43 -8 34 -36 -38 -12 -13 16 -30 24 23 22" />
    </vehicle>
    <vehicle id="53" depart="47700.00" type="v_normal2">
        <route edges="-20 62 -4 -24 -31 -58 -69" />
    </vehicle>
    <vehicle id="54" depart="48600.00" type="v_normal2">
        <route edges="-73 -17 41 0 -65 -66 -47 80 79 78#1 78#0" />
    </vehicle>
    <vehicle id="55" depart="49500.00" type="v_normal4">
        <route edges="66 65 -0 -1 29 18 -42 -43" />
    </vehicle>
    <vehicle id="56" depart="50400.00" type="v_normal4">
        <route edges="-78#1 -79 -80 47 66 65 -0 -1 -2 -3" />
    </vehicle>
    <vehicle id="57" depart="51300.00" type="v_normal2">
        <route edges="7 6 -66 -47 -48 -50#0 -50#1 -51 -52 -81 -60 52 51 50#1 50#0 49 47 66" />
    </vehicle>
    <vehicle id="58" depart="52200.00" type="v_normal4">
        <route edges="-48 -50#0 -50#1 -51 -52 -81 -60 52 51 50#1 50#0 49 80 79 78#1 78#0 77 24 23 22" />
    </vehicle>
    <vehicle id="59" depart="53100.00" type="v_normal2">
        <route edges="2 29 28 -25" />
    </vehicle>
    <vehicle id="60" depart="54000.00" type="v_normal4">
        <route edges="43 42 41 0 -65 -66 -47 -48 -50#0 -50#1 -51 -52 -81" />
    </vehicle>
    <vehicle id="61" depart="54900.00" type="v_normal1">
        <route edges="47 -67 33 31 -76 -78#0 -78#1 -79 -80" />
    </vehicle>
    <vehicle id="62" depart="55800.00" type="v_normal4">
        <route edges="-0 -1 29 28 -25 -38 -12 -13 16 -30 -76 -78#0 -78#1 -79 -80 -48 -50#0 -50#1" />
    </vehicle>
    <vehicle id="63" depart="56700.00" type="v_normal4">
        <route edges="-10 -11 15 -28 -29 1 0 -65 -5 75 74" />
    </vehicle>
    <vehicle id="64" depart="57600.00" type="v_normal1">
        <route edges="67 -47 -48 -50#0 -50#1 -51 -52 -81 -60 52" />
    </vehicle>
    <vehicle id="65" depart="58500.00" type="v_normal1">
        <route edges="-5 -7 -8 34 -36 -38 -12 -13 -14" />
    </vehicle>
    <vehicle id="66" depart="59400.00" type="v_normal0">
        <route edges="66 65 -0 -1 29 28 -25 -38 -12 -13 -14 -10 46 8 7 6 -66 -47 80 79 78#1 78#0 77" />
    </vehicle>
    <vehicle id="67" depart="60300.00" type="v_normal2">
        <route edges="-19 -3 -4 -24 -76 -78#0" />
    </vehicle>
    <vehicle id="68" depart="61200.00" type="v_normal1">
        <route edges="-17 41 0 -73 -74 -75 -7 43" />
    </vehicle>
    <vehicle id="69" depart="62100.00" type="v_normal1">
        <route edges="43 42 -18 28 -25 -61 -44 -22" />
    </vehicle>
    <vehicle id="70" depart="63000.00" type="v_normal2">
        <route edges="-75 -7 43 42 41 0" />
    </vehicle>
    <vehicle id="71" depart="63900.00" type="v_normal1">
        <route edges="-43 -8 34 -36 -38 -12 -13 16 -30 -76 -78#0 -78#1 -79 -80 47 66" />
    </vehicle>
    <vehicle id="72" depart="64800.00" type="v_normal1">
        <route edges="-68 -69 -24 -31 -32" />
    </vehicle>
    <vehicle id="73" depart="65700.00" type="v_normal1">
        <route edges="-81 -60 52 51 50#1 50#0 49 80 79 78#1 78#0 77 24 4" />
    </vehicle>
    <vehicle id="74" depart="66600.00" type="v_normal1">
        <route edges="-31 -58 -69 -24 -76 -78#0 -78#1 -79 -80 -48 -50#0" />
    </vehicle>
    <vehicle id="75" depart="67500.00" type="v_normal4">
        <route edges="80 79 78#1 78#0 77 24 23" />
    </vehicle>
    <vehicle id="76" depart="68400.00" type="v_normal2">
        <route edges="-69 -24 30 -10 -11 15 -28 18 -42 -43 -8" />
    </vehicle>
    <vehicle id="77" depart="69300.00" type="v_normal3">
        <route edges="-21 -22 -23 -24 30 -10 -11 -36 -38" />
    </vehicle>
    <vehicle id="78" depart="70200.00" type="v_normal4">
        <route edges="-52 -81 -60 52 51 50#1 50#0 49 80 79 78#1 78#0 77 30 -10 -11 15 -28 18 17" />
    </vehicle>
    <vehicle id="79" depart="71100.00" type="v_normal0">
        <route edges="-38 -12 -13 -14 -10 -11 -36" />
    </vehicle>
    <vehicle id="80" depart="72000.00" type="v_normal0">
        <route edges="-17 -18 28 -25 -61 -44 21" />
    </vehicle>
    <vehicle id="81" depart="72900.00" type="v_normal0">
        <route edges="-38 -12 -13 16 -30 24 69" />
    </vehicle>
    <vehicle id="82" depart="73800.00" type="v_normal1">
        <route edges="62 3 2 1 0 -73 -17" />
    </vehicle>
    <vehicle id="83" depart="74700.00" type="v_normal0">
        <route edges="-4 23 22 21 20 19 28" />
    </vehicle>
    <vehicle id="84" depart="75600.00" type="v_normal2">
        <route edges="-32 -68 -69 4 -44 -22 -23" />
    </vehicle>
    <vehicle id="85" depart="76500.00" type="v_normal3">
        <route edges="75 -59 -43 -8 34 -36 -38 -12 -13 16" />
    </vehicle>
    <vehicle id="86" depart="77400.00" type="v_normal4">
        <route edges="-75 -7 -8 34 -36 -38 -12 -13 16 -30 -76 -78#0 -78#1 -79 -80 47" />
    </vehicle>
    <vehicle id="87" depart="78300.00" type="v_normal4">
        <route edges="50#1 50#0 49 80 79 78#1 78#0 77 30 -10 -11 -36 -38 -12 -13 16 -30" />
    </vehicle>
    <vehicle id="88" depart="79200.00" type="v_normal3">
        <route edges="-2 -3 -4 -24 -31 -58 -69" />
    </vehicle>
    <vehicle id="89" depart="80100.00" type="v_normal3">
        <route edges="-68 -69 -24 30 -10 -11 15 -28 18 17 -74" />
    </vehicle>
    <vehicle id="90" depart="81000.00" type="v_normal4">
        <route edges="4 3 2 29" />
    </vehicle>
    <vehicle id="91" depart="81900.00" type="v_normal4">
        <route edges="8 7 6 -66 -47 80 79 78#1 78#0 77 30 -10 -11 15 -28 -29 -2" />
    </vehicle>
    <vehicle id="92" depart="82800.00" type="v_normal1">
        <route edges="-66 -47 -48 -50#0 -50#1 -51 -52" />
    </vehicle>
    <vehicle id="93" depart="83700.00" type="v_normal1">
        <route edges="65 -0 -1 29 -19 2 1 -41" />
    </vehicle>
    <vehicle id="94" depart="84600.00" type="v_normal1">
        <route edges="-30 24 4 3 2 1 0 -73" />
    </vehicle>
    <vehicle id="95" depart="85500.00" type="v_normal4">
        <route edges="-68 -69 4 -44" />
    </vehicle>
    <vehicle id="96" depart="86400.00" type="v_normal0">
        <route edges="-41 17 73" />
    </vehicle>
    <vehicle id="97" depart="87300.00" type="v_normal4">
        <route edges="-7 -8 34 -36 -38 -12 -13 16 -30 -76 -78#0 -78#1 -79 -80 47 66 65" />
    </vehicle>
    <vehicle id="98" depart="88200.00" type="v_normal4">
        <route edges="0 -73 -17 -18 28 -25 -38 -12 -13" />
    </vehicle>
    <vehicle id="99" depart="89100.00" type="v_normal2">
        <route edges="80 79 78#1 78#0 77 30 -10 46 8 7 6" />
    </vehicle>
    <vehicle id="100" depart="90000.00" type="v_normal0">
        <route edges="78#1 78#0 77 30 -10 -11 15 -28 -29 1 0 -65 -5 75 74" />
    </vehicle>
    <vehicle id="101" depart="90900.00" type="v_normal0">
        <route edges="61 -13 -14 -10 -11 15 -28" />
    </vehicle>
    <vehicle id="102" depart="91800.00" type="v_normal4">
        <route edges="-76 -78#0 -78#1 -79 -80 -48 -50#0 -50#1 -51 -52 -81 -60 52 51 50#1 50#0 49 80 79 78#1 78#0 77 -31 -32" />
    </vehicle>
    <vehicle id="103" depart="92700.00" type="v_normal3">
        <route edges="-65 -5 -7 -8 34 -36 -38 -12 -13 -14" />
    </vehicle>
    <vehicle id="104" depart="93600.00" type="v_normal0">
        <route edges="-61 -4 -24 30 -10 46 8" />
    </vehicle>
    <vehicle id="105" depart="94500.00" type="v_normal4">
        <route edges="-43 -8 34 -36 -38 -12 -13 16 -30 -76 -78#0 -78#1 -79 -80 47" />
    </vehicle>
    <vehicle id="106" depart="95400.00" type="v_normal0">
        <route edges="-73 -17 -18 28 -25 -38 -12 -13 16 -30 -31 -32 -68" />
    </vehicle>
    <vehicle id="107" depart="96300.00" type="v_normal4">
        <route edges="78#0 77 30 -10 46 8 7 6 -66 -47 80" />
    </vehicle>
    <vehicle id="108" depart="97200.00" type="v_normal0">
        <route edges="1 0 -65 -66 -67 33" />
    </vehicle>
    <vehicle id="109" depart="98100.00" type="v_normal2">
        <route edges="-25 -38 -12 -13 16 -30 -76 -78#0 -78#1 -79 -80 -48" />
    </vehicle>
    <vehicle id="110" depart="99000.00" type="v_normal4">
        <route edges="78#1 78#0 77 30 -10 -11 -36 -38 -12 -13 16" />
    </vehicle>
    <vehicle id="111" depart="99900.00" type="v_normal2">
        <route edges="0 -73 -74 -59 42" />
    </vehicle>
    <vehicle id="112" depart="100800.00" type="v_normal1">
        <route edges="-14 -10 -11 15 -28 18 17" />
    </vehicle>
    <vehicle id="113" depart="101700.00" type="v_normal0">
        <route edges="-78#1 -79 -80 47 -67 -68 -69 23 22 21 62" />
    </vehicle>
    <vehicle id="114" depart="102600.00" type="v_normal1">
        <route edges="-25 -38 -12 -13 -14 -10 46 8 7 6 -66 -47 80 79 78#1 78#0" />
    </vehicle>
    <vehicle id="115" depart="103500.00" type="v_normal0">
        <route edges="-18 -19 -3" />
    </vehicle>
    <vehicle id="116" depart="104400.00" type="v_normal1">
        <route edges="18 41 0 -73 -17 -18 -19 2 29" />
    </vehicle>
    <vehicle id="117" depart="105300.00" type="v_normal1">
        <route edges="-4 -24 -31 -58 -69 4 -62 -21" />
    </vehicle>
    <vehicle id="118" depart="106200.00" type="v_normal4">
        <route edges="68 67 -47 80 79 78#1 78#0 77 30 -10 -11 15 -28 -29 1 -41" />
    </vehicle>
    <vehicle id="119" depart="107100.00" type="v_normal2">
        <route edges="18 41 0 -73 -17 -18 28 -25 -61 -62 20" />
    </vehicle>
    <vehicle id="120" depart="108000.00" type="v_normal1">
        <route edges="-67 33 31 30 -10 -11 15 -28 18 17" />
    </vehicle>
    <vehicle id="121" depart="108900.00" type="v_normal4">
        <route edges="-8 34 15 -28 -29 1 0 -65 -5 75" />
    </vehicle>
    <vehicle id="122" depart="109800.00" type="v_normal2">
        <route edges="-31 -58 -69 -24 -76 -78#0 -78#1 -79 -80 47 -67 33" />
    </vehicle>
    <vehicle id="123" depart="110700.00" type="v_normal0">
        <route edges="-4 -24 30 -10 -11 15 -28 -29 1 0 -65" />
    </vehicle>
    <vehicle id="124" depart="111600.00" type="v_normal3">
        <route edges="28 -25 -61 3 2 1 0 -65 -5" />
    </vehicle>
    <vehicle id="125" depart="112500.00" type="v_normal4">
        <route edges="-50#0 -50#1 -51 -52 -81 -60 52 51 50#1 50#0 49 80 79 78#1 78#0 77 30 -10 -11 15 -28 18 17 -74 -59 42" />
    </vehicle>
    <vehicle id="126" depart="113400.00" type="v_normal3">
        <route edges="-17 41 0 -73 -74" />
    </vehicle>
    <vehicle id="127" depart="114300.00" type="v_normal3">
        <route edges="80" />
    </vehicle>
    <vehicle id="128" depart="115200.00" type="v_normal4">
        <route edges="-17 -18 28 -25 -38 -12 -13 16 -30 -31 -32" />
    </vehicle>
    <vehicle id="129" depart="116100.00" type="v_normal2">
        <route edges="-43 -8 34 15 -28 -29 1 0 -65 -5 75 74" />
    </vehicle>
    <vehicle id="130" depart="117000.00" type="v_normal1">
        <route edges="67" />
    </vehicle>
    <vehicle id="131" depart="117900.00" type="v_normal3">
        <route edges="-60 52 51 50#1 50#0 49 47 66 65 -0 -1 29 28 -25" />
    </vehicle>
    <vehicle id="132" depart="118800.00" type="v_normal0">
        <route edges="6 -66 -67 33 31" />
    </vehicle>
    <vehicle id="133" depart="119700.00" type="v_normal3">
        <route edges="2 29 28 -25 -38 -12 -13 -14 -10 46 8" />
    </vehicle>
    <vehicle id="134" depart="120600.00" type="v_normal3">
        <route edges="23 22 21 62 -4 -24 -76 -78#0 -78#1 -79 -80 47 66 65 -0" />
    </vehicle>
    <vehicle id="135" depart="121500.00" type="v_normal0">
        <route edges="51 50#1 50#0 49 80 79 78#1 78#0 77 30 -10 -11 15 -28 -29 1 0 -65 -5" />
    </vehicle>
    <vehicle id="136" depart="122400.00" type="v_normal4">
        <route edges="24 4 3 2 1 0 -65 -5 75" />
    </vehicle>
    <vehicle id="137" depart="123300.00" type="v_normal1">
        <route edges="-23 4 -62 -21" />
    </vehicle>
    <vehicle id="138" depart="124200.00" type="v_normal3">
        <route edges="-20 62 3 2 1" />
    </vehicle>
    <vehicle id="139" depart="125100.00" type="v_normal3">
        <route edges="-44 21 20 19" />
    </vehicle>
    <vehicle id="140" depart="126000.00" type="v_normal3">
        <route edges="33 31 30 -10 -11 -36 -38 -12 -13 16 -30 -31" />
    </vehicle>
    <vehicle id="141" depart="126900.00" type="v_normal3">
        <route edges="21 20 19 18 -42 -43" />
    </vehicle>
    <vehicle id="142" depart="127800.00" type="v_normal2">
        <route edges="-78#0 -78#1 -79 -80 -48 -50#0 -50#1 -51 -52 -81 -60 52 51 50#1 50#0 49 80 79 78#1 78#0 77 24 69" />
    </vehicle>
    <vehicle id="143" depart="128700.00" type="v_normal2">
        <route edges="61 -13 -14 -10 -11 15 -28 -19" />
    </vehicle>
    <vehicle id="144" depart="129600.00" type="v_normal2">
        <route edges="-68 -69 4 -44" />
    </vehicle>
    <vehicle id="145" depart="130500.00" type="v_normal2">
        <route edges="-0 -1 29 28 -25 -38 -12 -13 -14 -10 46" />
    </vehicle>
    <vehicle id="146" depart="131400.00" type="v_normal0">
        <route edges="22 21 20 19 18 -42 -43" />
    </vehicle>
    <vehicle id="147" depart="132300.00" type="v_normal4">
        <route edges="41 0 -73 -17 -18 -29 1" />
    </vehicle>
    <vehicle id="148" depart="133200.00" type="v_normal1">
        <route edges="-68 -69 -24 -76 -78#0 -78#1 -79 -80 47 66 65 -0 -1" />
    </vehicle>
    <vehicle id="149" depart="134100.00" type="v_normal4">
        <route edges="-18 28 -25 -61 -4 69 68 67" />
    </vehicle>
    <vehicle id="150" depart="135000.00" type="v_normal0">
        <route edges="69 68 67 -47 80 79 78#1 78#0 77 30 -10 -11 15 -28 -29 1 0" />
    </vehicle>
    <vehicle id="151" depart="135900.00" type="v_normal0">
        <route edges="6 -66 -47 80 79 78#1 78#0 77 30 -10 -11 15 -28 18 17" />
    </vehicle>
    <vehicle id="152" depart="136800.00" type="v_normal2">
        <route edges="-24 -31 -58 -69 4 -44 -22" />
    </vehicle>
    <vehicle id="153" depart="137700.00" type="v_normal1">
        <route edges="-5 -7 -8 34 -36 -38 -12 -13 16 -30 24 69" />
    </vehicle>
    <vehicle id="154" depart="138600.00" type="v_normal1">
        <route edges="50#0 49 47 66 65" />
    </vehicle>
    <vehicle id="155" depart="139500.00" type="v_normal1">
        <route edges="69 68 67 -47 80 79 78#1 78#0 77 -31 -32" />
    </vehicle>
    <vehicle id="156" depart="140400.00" type="v_normal1">
        <route edges="-41 -18 -29 -2" />
    </vehicle>
    <vehicle id="157" depart="141300.00" type="v_normal0">
        <route edges="47 -67 33 31 24 69 68 67" />
    </vehicle>