<?xml version="1.0" encoding="UTF-8"?>

<!-- generated on 2025-06-02 15:38:45.500259 by randomTrips.py UNKNOWN
<configuration>
    <net-file value="town03/osm.net.xml"/>
    <additional-files value="town03/park.add.xml"/>
    <output-trip-file value="town03/randtrips.trips.xml"/>
    <route-file value="town03/randtrips.rou.xml"/>
    <validate value="True"/>
    <end value="864000.0"/>
    <period value="900.0"/>
</configuration>
-->

<!-- generated on 2025-06-02 15:38:45 by Eclipse SUMO duarouter Version 1.23.1
<duarouterConfiguration xmlns:xsi="http://www.w3.org/2001/XMLSchema-instance" xsi:noNamespaceSchemaLocation="http://sumo.dlr.de/xsd/duarouterConfiguration.xsd">

    <input>
        <net-file value="town03/osm.net.xml"/>
        <additional-files value="town03/park.add.xml"/>
        <route-files value="town03/randtrips.trips.xml"/>
    </input>

    <output>
        <output-file value="town03/randtrips.trips.xml.tmp"/>
        <alternatives-output value="NUL"/>
        <write-trips value="true"/>
    </output>

    <time>
        <begin value="0"/>
        <end value="864000.0"/>
    </time>

    <report>
        <no-warnings value="true"/>
        <ignore-errors value="true"/>
        <no-step-log value="true"/>
    </report>

</duarouterConfiguration>
-->

<routes xmlns:xsi="http://www.w3.org/2001/XMLSchema-instance" xsi:noNamespaceSchemaLocation="http://sumo.dlr.de/xsd/routes_file.xsd">
    <trip id="0" depart="0.00" from="22" to="-10"/>
    <trip id="1" depart="900.00" from="-44" to="-36"/>
    <trip id="2" depart="1800.00" from="4" to="29"/>
    <trip id="3" depart="2700.00" from="68" to="-19"/>
    <trip id="4" depart="3600.00" from="-68" to="-11"/>
    <trip id="5" depart="4500.00" from="-36" to="-79"/>
    <trip id="6" depart="5400.00" from="-10" to="-31"/>
    <trip id="7" depart="6300.00" from="23" to="0"/>
    <trip id="8" depart="7200.00" from="-36" to="18"/>
    <trip id="9" depart="8100.00" from="50#1" to="-0"/>
    <trip id="10" depart="9000.00" from="50#1" to="30"/>
    <trip id="11" depart="9900.00" from="-52" to="-25"/>
    <trip id="12" depart="10800.00" from="78#0" to="-52"/>
    <trip id="13" depart="11700.00" from="-19" to="-2"/>
    <trip id="14" depart="12600.00" from="61" to="19"/>
    <trip id="15" depart="13500.00" from="50#1" to="4"/>
    <trip id="16" depart="14400.00" from="-81" to="79"/>
    <trip id="17" depart="15300.00" from="-61" to="1"/>
    <trip id="18" depart="16200.00" from="52" to="20"/>
    <trip id="19" depart="17100.00" from="65" to="16"/>
    <trip id="20" depart="18000.00" from="31" to="-12"/>
    <trip id="21" depart="18900.00" from="-38" to="-47"/>
    <trip id="22" depart="19800.00" from="-18" to="-38"/>
    <trip id="23" depart="20700.00" from="-2" to="-44"/>
    <trip id="24" depart="21600.00" from="22" to="-60"/>
    <trip id="25" depart="22500.00" from="-60" to="-32"/>
    <trip id="26" depart="23400.00" from="-43" to="75"/>
    <trip id="27" depart="24300.00" from="23" to="2"/>
    <trip id="28" depart="25200.00" from="-29" to="4"/>
    <trip id="29" depart="26100.00" from="-28" to="-61"/>
    <trip id="30" depart="27000.00" from="8" to="22"/>
    <trip id="31" depart="27900.00" from="1" to="3"/>
    <trip id="32" depart="28800.00" from="61" to="47"/>
    <trip id="33" depart="29700.00" from="-38" to="-11"/>
    <trip id="34" depart="30600.00" from="-50#0" to="-43"/>
    <trip id="35" depart="31500.00" from="-32" to="75"/>
    <trip id="36" depart="32400.00" from="66" to="-50#0"/>
    <trip id="37" depart="33300.00" from="24" to="-65"/>
    <trip id="38" depart="34200.00" from="7" to="-74"/>
    <trip id="39" depart="35100.00" from="-43" to="-41"/>
    <trip id="40" depart="36000.00" from="15" to="-43"/>
    <trip id="41" depart="36900.00" from="17" to="69"/>
    <trip id="42" depart="37800.00" from="-65" to="-36"/>
    <trip id="43" depart="38700.00" from="80" to="-79"/>
    <trip id="44" depart="39600.00" from="-19" to="-13"/>
    <trip id="45" depart="40500.00" from="-20" to="21"/>
    <trip id="46" depart="41400.00" from="49" to="-68"/>
    <trip id="47" depart="42300.00" from="-14" to="-61"/>
    <trip id="48" depart="43200.00" from="80" to="-80"/>
    <trip id="49" depart="44100.00" from="78#1" to="65"/>
    <trip id="50" depart="45000.00" from="-1" to="34"/>
    <trip id="51" depart="45900.00" from="29" to="-81"/>
    <trip id="52" depart="46800.00" from="-43" to="22"/>
    <trip id="53" depart="47700.00" from="-20" to="-69"/>
    <trip id="54" depart="48600.00" from="-73" to="78#0"/>
    <trip id="55" depart="49500.00" from="66" to="-43"/>
    <trip id="56" depart="50400.00" from="-78#1" to="-3"/>
    <trip id="57" depart="51300.00" from="7" to="66"/>
    <trip id="58" depart="52200.00" from="-48" to="22"/>
    <trip id="59" depart="53100.00" from="2" to="-25"/>
    <trip id="60" depart="54000.00" from="43" to="-81"/>
    <trip id="61" depart="54900.00" from="47" to="-80"/>
    <trip id="62" depart="55800.00" from="-0" to="-50#1"/>
    <trip id="63" depart="56700.00" from="-10" to="74"/>
    <trip id="64" depart="57600.00" from="67" to="52"/>
    <trip id="65" depart="58500.00" from="-5" to="-14"/>
    <trip id="66" depart="59400.00" from="66" to="77"/>
    <trip id="67" depart="60300.00" from="-19" to="-78#0"/>
    <trip id="68" depart="61200.00" from="-17" to="43"/>
    <trip id="69" depart="62100.00" from="43" to="-22"/>
    <trip id="70" depart="63000.00" from="-75" to="0"/>
    <trip id="71" depart="63900.00" from="-43" to="66"/>
    <trip id="72" depart="64800.00" from="-68" to="-32"/>
    <trip id="73" depart="65700.00" from="-81" to="4"/>
    <trip id="74" depart="66600.00" from="-31" to="-50#0"/>
    <trip id="75" depart="67500.00" from="80" to="23"/>
    <trip id="76" depart="68400.00" from="-69" to="-8"/>
    <trip id="77" depart="69300.00" from="-21" to="-38"/>
    <trip id="78" depart="70200.00" from="-52" to="17"/>
    <trip id="79" depart="71100.00" from="-38" to="-36"/>
    <trip id="80" depart="72000.00" from="-17" to="21"/>
    <trip id="81" depart="72900.00" from="-38" to="69"/>
    <trip id="82" depart="73800.00" from="62" to="-17"/>
    <trip id="83" depart="74700.00" from="-4" to="28"/>
    <trip id="84" depart="75600.00" from="-32" to="-23"/>
    <trip id="85" depart="76500.00" from="75" to="16"/>
    <trip id="86" depart="77400.00" from="-75" to="47"/>
    <trip id="87" depart="78300.00" from="50#1" to="-30"/>
    <trip id="88" depart="79200.00" from="-2" to="-69"/>
    <trip id="89" depart="80100.00" from="-68" to="-74"/>
    <trip id="90" depart="81000.00" from="4" to="29"/>
    <trip id="91" depart="81900.00" from="8" to="-2"/>
    <trip id="92" depart="82800.00" from="-66" to="-52"/>
    <trip id="93" depart="83700.00" from="65" to="-41"/>
    <trip id="94" depart="84600.00" from="-30" to="-73"/>
    <trip id="95" depart="85500.00" from="-68" to="-44"/>
    <trip id="96" depart="86400.00" from="-41" to="73"/>
    <trip id="97" depart="87300.00" from="-7" to="65"/>
    <trip id="98" depart="88200.00" from="0" to="-13"/>
    <trip id="99" depart="89100.00" from="80" to="6"/>
    <trip id="100" depart="90000.00" from="78#1" to="74"/>
    <trip id="101" depart="90900.00" from="61" to="-28"/>
    <trip id="102" depart="91800.00" from="-76" to="-32"/>
    <trip id="103" depart="92700.00" from="-65" to="-14"/>
    <trip id="104" depart="93600.00" from="-61" to="8"/>
    <trip id="105" depart="94500.00" from="-43" to="47"/>
    <trip id="106" depart="95400.00" from="-73" to="-68"/>
    <trip id="107" depart="96300.00" from="78#0" to="80"/>
    <trip id="108" depart="97200.00" from="1" to="33"/>
    <trip id="109" depart="98100.00" from="-25" to="-48"/>
    <trip id="110" depart="99000.00" from="78#1" to="16"/>
    <trip id="111" depart="99900.00" from="0" to="42"/>
    <trip id="112" depart="100800.00" from="-14" to="17"/>
    <trip id="113" depart="101700.00" from="-78#1" to="62"/>
    <trip id="114" depart="102600.00" from="-25" to="78#0"/>
    <trip id="115" depart="103500.00" from="-18" to="-3"/>
    <trip id="116" depart="104400.00" from="18" to="29"/>
    <trip id="117" depart="105300.00" from="-4" to="-21"/>
    <trip id="118" depart="106200.00" from="68" to="-41"/>
    <trip id="119" depart="107100.00" from="18" to="20"/>
    <trip id="120" depart="108000.00" from="-67" to="17"/>
    <trip id="121" depart="108900.00" from="-8" to="75"/>
    <trip id="122" depart="109800.00" from="-31" to="33"/>
    <trip id="123" depart="110700.00" from="-4" to="-65"/>
    <trip id="124" depart="111600.00" from="28" to="-5"/>
    <trip id="125" depart="112500.00" from="-50#0" to="42"/>
    <trip id="126" depart="113400.00" from="-17" to="-74"/>
    <trip id="127" depart="114300.00" from="80" to="80"/>
    <trip id="128" depart="115200.00" from="-17" to="-32"/>
    <trip id="129" depart="116100.00" from="-43" to="74"/>
    <trip id="130" depart="117000.00" from="67" to="67"/>
    <trip id="131" depart="117900.00" from="-60" to="-25"/>
    <trip id="132" depart="118800.00" from="6" to="31"/>
    <trip id="133" depart="119700.00" from="2" to="8"/>
    <trip id="134" depart="120600.00" from="23" to="-0"/>
    <trip id="135" depart="121500.00" from="51" to="-5"/>
    <trip id="136" depart="122400.00" from="24" to="75"/>
    <trip id="137" depart="123300.00" from="-23" to="-21"/>
    <trip id="138" depart="124200.00" from="-20" to="1"/>
    <trip id="139" depart="125100.00" from="-44" to="19"/>
    <trip id="140" depart="126000.00" from="33" to="-31"/>
    <trip id="141" depart="126900.00" from="21" to="-43"/>
    <trip id="142" depart="127800.00" from="-78#0" to="69"/>
    <trip id="143" depart="128700.00" from="61" to="-19"/>
    <trip id="144" depart="129600.00" from="-68" to="-44"/>
    <trip id="145" depart="130500.00" from="-0" to="46"/>
    <trip id="146" depart="131400.00" from="22" to="-43"/>
    <trip id="147" depart="132300.00" from="41" to="1"/>
    <trip id="148" depart="133200.00" from="-68" to="-1"/>
    <trip id="149" depart="134100.00" from="-18" to="67"/>
    <trip id="150" depart="135000.00" from="69" to="0"/>
    <trip id="151" depart="135900.00" from="6" to="17"/>
    <trip id="152" depart="136800.00" from="-24" to="-22"/>
    <trip id="153" depart="137700.00" from="-5" to="69"/>
    <trip id="154" depart="138600.00" from="50#0" to="65"/>
    <trip id="155" depart="139500.00" from="69" to="-32"/>
    <trip id="156" depart="140400.00" from="-41" to="-2"/>
    <trip id="157" depart="141300.00" from="47" to="67"/>
    <trip id="158" depart="142200.00" from="-66" to="20"/>
    <trip id="159" depart="143100.00" from="-25" to="74"/>
    <trip id="160" depart="144000.00" from="65" to="79"/>
    <trip id="161" depart="144900.00" from="50#1" to="67"/>
    <trip id="162" depart="145800.00" from="-10" to="4"/>
    <trip id="163" depart="146700.00" from="-51" to="74"/>
    <trip id="164" depart="147600.00" from="50#0" to="65"/>
    <trip id="165" depart="148500.00" from="50#1" to="-43"/>
    <trip id="166" depart="149400.00" from="49" to="-20"/>
    <trip id="167" depart="150300.00" from="66" to="62"/>
    <trip id="168" depart="151200.00" from="-36" to="51"/>
    <trip id="169" depart="152100.00" from="-74" to="-5"/>
    <trip id="170" depart="153000.00" from="50#0" to="-38"/>
    <trip id="171" depart="153900.00" from="-10" to="-30"/>
    <trip id="172" depart="154800.00" from="-51" to="65"/>
    <trip id="173" depart="155700.00" from="78#1" to="-44"/>
    <trip id="174" depart="156600.00" from="22" to="-65"/>
    <trip id="175" depart="157500.00" from="79" to="-81"/>
    <trip id="176" depart="158400.00" from="75" to="-21"/>
    <trip id="177" depart="159300.00" from="78#1" to="-3"/>
    <trip id="178" depart="160200.00" from="78#0" to="-43"/>
    <trip id="179" depart="161100.00" from="-20" to="-69"/>
    <trip id="180" depart="162000.00" from="34" to="-50#0"/>
    <trip id="181" depart="162900.00" from="19" to="-79"/>
    <trip id="182" depart="163800.00" from="-62" to="16"/>
    <trip id="183" depart="164700.00" from="-42" to="31"/>
    <trip id="184" depart="165600.00" from="-0" to="74"/>
    <trip id="185" depart="166500.00" from="-81" to="33"/>
    <trip id="186" depart="167400.00" from="41" to="28"/>
    <trip id="187" depart="168300.00" from="-59" to="-17"/>
    <trip id="188" depart="169200.00" from="28" to="-51"/>
    <trip id="189" depart="170100.00" from="-50#0" to="61"/>
    <trip id="190" depart="171000.00" from="34" to="-5"/>
    <trip id="191" depart="171900.00" from="-50#0" to="-66"/>
    <trip id="192" depart="172800.00" from="-66" to="-48"/>
    <trip id="193" depart="173700.00" from="-22" to="-67"/>
    <trip id="194" depart="174600.00" from="75" to="29"/>
    <trip id="195" depart="175500.00" from="69" to="2"/>
    <trip id="196" depart="176400.00" from="-5" to="0"/>
    <trip id="197" depart="177300.00" from="-0" to="-47"/>
    <trip id="198" depart="178200.00" from="-68" to="17"/>
    <trip id="199" depart="179100.00" from="24" to="-74"/>
    <trip id="200" depart="180000.00" from="-7" to="-32"/>
    <trip id="201" depart="180900.00" from="-75" to="69"/>
    <trip id="202" depart="181800.00" from="50#0" to="-29"/>
    <trip id="203" depart="182700.00" from="-19" to="-8"/>
    <trip id="204" depart="183600.00" from="21" to="-51"/>
    <trip id="205" depart="184500.00" from="51" to="42"/>
    <trip id="206" depart="185400.00" from="28" to="-38"/>
    <trip id="207" depart="186300.00" from="-31" to="-10"/>
    <trip id="208" depart="187200.00" from="-41" to="-75"/>
    <trip id="209" depart="188100.00" from="61" to="-17"/>
    <trip id="210" depart="189000.00" from="-67" to="21"/>
    <trip id="211" depart="189900.00" from="-30" to="30"/>
    <trip id="212" depart="190800.00" from="-78#0" to="-41"/>
    <trip id="213" depart="191700.00" from="24" to="-0"/>
    <trip id="214" depart="192600.00" from="42" to="46"/>
    <trip id="215" depart="193500.00" from="-20" to="-68"/>
    <trip id="216" depart="194400.00" from="-29" to="78#0"/>
    <trip id="217" depart="195300.00" from="-8" to="-13"/>
    <trip id="218" depart="196200.00" from="-41" to="61"/>
    <trip id="219" depart="197100.00" from="-73" to="50#0"/>
    <trip id="220" depart="198000.00" from="28" to="8"/>
    <trip id="221" depart="198900.00" from="18" to="77"/>
    <trip id="222" depart="199800.00" from="68" to="2"/>
    <trip id="223" depart="200700.00" from="33" to="-79"/>
    <trip id="224" depart="201600.00" from="52" to="0"/>
    <trip id="225" depart="202500.00" from="69" to="41"/>
    <trip id="226" depart="203400.00" from="-75" to="-42"/>
    <trip id="227" depart="204300.00" from="-41" to="22"/>
    <trip id="228" depart="205200.00" from="43" to="-8"/>
    <trip id="229" depart="206100.00" from="21" to="-44"/>
    <trip id="230" depart="207000.00" from="-18" to="-47"/>
    <trip id="231" depart="207900.00" from="-44" to="-50#1"/>
    <trip id="232" depart="208800.00" from="-81" to="-23"/>
    <trip id="233" depart="209700.00" from="-38" to="30"/>
    <trip id="234" depart="210600.00" from="31" to="-14"/>
    <trip id="235" depart="211500.00" from="-66" to="0"/>
    <trip id="236" depart="212400.00" from="-67" to="-32"/>
    <trip id="237" depart="213300.00" from="-67" to="69"/>
    <trip id="238" depart="214200.00" from="17" to="30"/>
    <trip id="239" depart="215100.00" from="62" to="43"/>
    <trip id="240" depart="216000.00" from="-61" to="-0"/>
    <trip id="241" depart="216900.00" from="-58" to="42"/>
    <trip id="242" depart="217800.00" from="62" to="78#0"/>
    <trip id="243" depart="218700.00" from="-67" to="41"/>
    <trip id="244" depart="219600.00" from="0" to="19"/>
    <trip id="245" depart="220500.00" from="-36" to="-36"/>
    <trip id="246" depart="221400.00" from="-69" to="-11"/>
    <trip id="247" depart="222300.00" from="-51" to="29"/>
    <trip id="248" depart="223200.00" from="-66" to="-28"/>
    <trip id="249" depart="224100.00" from="-75" to="-22"/>
    <trip id="250" depart="225000.00" from="20" to="-10"/>
    <trip id="251" depart="225900.00" from="-65" to="15"/>
    <trip id="252" depart="226800.00" from="-10" to="22"/>
    <trip id="253" depart="227700.00" from="-23" to="-74"/>
    <trip id="254" depart="228600.00" from="-13" to="-61"/>
    <trip id="255" depart="229500.00" from="-32" to="-50#1"/>
    <trip id="256" depart="230400.00" from="43" to="-61"/>
    <trip id="257" depart="231300.00" from="42" to="6"/>
    <trip id="258" depart="232200.00" from="-41" to="-18"/>
    <trip id="259" depart="233100.00" from="-10" to="-81"/>
    <trip id="260" depart="234000.00" from="80" to="-58"/>
    <trip id="261" depart="234900.00" from="23" to="47"/>
    <trip id="262" depart="235800.00" from="23" to="42"/>
    <trip id="263" depart="236700.00" from="77" to="-31"/>
    <trip id="264" depart="237600.00" from="-10" to="-25"/>
    <trip id="265" depart="238500.00" from="-22" to="28"/>
    <trip id="266" depart="239400.00" from="15" to="-36"/>
    <trip id="267" depart="240300.00" from="30" to="46"/>
    <trip id="268" depart="241200.00" from="-28" to="19"/>
    <trip id="269" depart="242100.00" from="42" to="-21"/>
    <trip id="270" depart="243000.00" from="51" to="78#1"/>
    <trip id="271" depart="243900.00" from="-20" to="-10"/>
    <trip id="272" depart="244800.00" from="-50#0" to="29"/>
    <trip id="273" depart="245700.00" from="78#0" to="-65"/>
    <trip id="274" depart="246600.00" from="33" to="-18"/>
    <trip id="275" depart="247500.00" from="3" to="21"/>
    <trip id="276" depart="248400.00" from="-2" to="46"/>
    <trip id="277" depart="249300.00" from="61" to="19"/>
    <trip id="278" depart="250200.00" from="-21" to="8"/>
    <trip id="279" depart="251100.00" from="47" to="-58"/>
    <trip id="280" depart="252000.00" from="-68" to="-60"/>
    <trip id="281" depart="252900.00" from="-79" to="-52"/>
    <trip id="282" depart="253800.00" from="61" to="51"/>
    <trip id="283" depart="254700.00" from="-20" to="78#0"/>
    <trip id="284" depart="255600.00" from="22" to="52"/>
    <trip id="285" depart="256500.00" from="31" to="-69"/>
    <trip id="286" depart="257400.00" from="4" to="78#1"/>
    <trip id="287" depart="258300.00" from="-43" to="50#1"/>
    <trip id="288" depart="259200.00" from="-81" to="-76"/>
    <trip id="289" depart="260100.00" from="-69" to="4"/>
    <trip id="290" depart="261000.00" from="-43" to="62"/>
    <trip id="291" depart="261900.00" from="52" to="-19"/>
    <trip id="292" depart="262800.00" from="67" to="-41"/>
    <trip id="293" depart="263700.00" from="-74" to="2"/>
    <trip id="294" depart="264600.00" from="-61" to="-11"/>
    <trip id="295" depart="265500.00" from="62" to="-3"/>
    <trip id="296" depart="266400.00" from="-32" to="50#0"/>
    <trip id="297" depart="267300.00" from="-52" to="67"/>
    <trip id="298" depart="268200.00" from="31" to="-44"/>
    <trip id="299" depart="269100.00" from="-1" to="77"/>
    <trip id="300" depart="270000.00" from="-19" to="34"/>
    <trip id="301" depart="270900.00" from="-78#0" to="43"/>
    <trip id="302" depart="271800.00" from="3" to="23"/>
    <trip id="303" depart="272700.00" from="-78#0" to="49"/>
    <trip id="304" depart="273600.00" from="-19" to="-36"/>
    <trip id="305" depart="274500.00" from="30" to="-5"/>
    <trip id="306" depart="275400.00" from="17" to="-75"/>
    <trip id="307" depart="276300.00" from="-80" to="-68"/>
    <trip id="308" depart="277200.00" from="41" to="-51"/>
    <trip id="309" depart="278100.00" from="31" to="-43"/>
    <trip id="310" depart="279000.00" from="-41" to="-21"/>
    <trip id="311" depart="279900.00" from="-30" to="-21"/>
    <trip id="312" depart="280800.00" from="-81" to="43"/>
    <trip id="313" depart="281700.00" from="-3" to="-36"/>
    <trip id="314" depart="282600.00" from="-76" to="34"/>
    <trip id="315" depart="283500.00" from="79" to="-80"/>
    <trip id="316" depart="284400.00" from="-47" to="-2"/>
    <trip id="317" depart="285300.00" from="-30" to="-38"/>
    <trip id="318" depart="286200.00" from="-3" to="-1"/>
    <trip id="319" depart="287100.00" from="-81" to="-44"/>
    <trip id="320" depart="288000.00" from="79" to="1"/>
    <trip id="321" depart="288900.00" from="30" to="-22"/>
    <trip id="322" depart="289800.00" from="65" to="-78#0"/>
    <trip id="323" depart="290700.00" from="66" to="16"/>
    <trip id="324" depart="291600.00" from="-75" to="-7"/>
    <trip id="325" depart="292500.00" from="-3" to="-13"/>
    <trip id="326" depart="293400.00" from="75" to="-76"/>
    <trip id="327" depart="294300.00" from="51" to="-65"/>
    <trip id="328" depart="295200.00" from="-17" to="21"/>
    <trip id="329" depart="296100.00" from="-13" to="-24"/>
    <trip id="330" depart="297000.00" from="15" to="-5"/>
    <trip id="331" depart="297900.00" from="80" to="-21"/>
    <trip id="332" depart="298800.00" from="43" to="19"/>
    <trip id="333" depart="299700.00" from="49" to="-38"/>
    <trip id="334" depart="300600.00" from="-8" to="-73"/>
    <trip id="335" depart="301500.00" from="-7" to="65"/>
    <trip id="336" depart="302400.00" from="8" to="-5"/>
    <trip id="337" depart="303300.00" from="20" to="2"/>
    <trip id="338" depart="304200.00" from="41" to="77"/>
    <trip id="339" depart="305100.00" from="-32" to="-32"/>
    <trip id="340" depart="306000.00" from="24" to="-25"/>
    <trip id="341" depart="306900.00" from="-29" to="-18"/>
    <trip id="342" depart="307800.00" from="-0" to="-73"/>
    <trip id="343" depart="308700.00" from="18" to="-48"/>
    <trip id="344" depart="309600.00" from="-38" to="31"/>
    <trip id="345" depart="310500.00" from="31" to="-73"/>
    <trip id="346" depart="311400.00" from="3" to="73"/>
    <trip id="347" depart="312300.00" from="49" to="20"/>
    <trip id="348" depart="313200.00" from="24" to="74"/>
    <trip id="349" depart="314100.00" from="-68" to="0"/>
    <trip id="350" depart="315000.00" from="23" to="7"/>
    <trip id="351" depart="315900.00" from="52" to="-17"/>
    <trip id="352" depart="316800.00" from="-28" to="-5"/>
    <trip id="353" depart="317700.00" from="42" to="15"/>
    <trip id="354" depart="318600.00" from="-47" to="-22"/>
    <trip id="355" depart="319500.00" from="3" to="30"/>
    <trip id="356" depart="320400.00" from="75" to="-78#1"/>
    <trip id="357" depart="321300.00" from="-78#0" to="-18"/>
    <trip id="358" depart="322200.00" from="-12" to="-69"/>
    <trip id="359" depart="323100.00" from="-50#1" to="-41"/>
    <trip id="360" depart="324000.00" from="-19" to="78#0"/>
    <trip id="361" depart="324900.00" from="6" to="16"/>
    <trip id="362" depart="325800.00" from="77" to="80"/>
    <trip id="363" depart="326700.00" from="28" to="-43"/>
    <trip id="364" depart="327600.00" from="-12" to="42"/>
    <trip id="365" depart="328500.00" from="-75" to="23"/>
    <trip id="366" depart="329400.00" from="73" to="-3"/>
    <trip id="367" depart="330300.00" from="17" to="21"/>
    <trip id="368" depart="331200.00" from="-78#0" to="-19"/>
    <trip id="369" depart="332100.00" from="-58" to="-51"/>
    <trip id="370" depart="333000.00" from="28" to="62"/>
    <trip id="371" depart="333900.00" from="-51" to="30"/>
    <trip id="372" depart="334800.00" from="-47" to="77"/>
    <trip id="373" depart="335700.00" from="51" to="0"/>
    <trip id="374" depart="336600.00" from="-73" to="-50#0"/>
    <trip id="375" depart="337500.00" from="-50#1" to="78#1"/>
    <trip id="376" depart="338400.00" from="-66" to="-8"/>
    <trip id="377" depart="339300.00" from="8" to="24"/>
    <trip id="378" depart="340200.00" from="0" to="-67"/>
    <trip id="379" depart="341100.00" from="-30" to="-59"/>
    <trip id="380" depart="342000.00" from="42" to="20"/>
    <trip id="381" depart="342900.00" from="43" to="-31"/>
    <trip id="382" depart="343800.00" from="0" to="74"/>
    <trip id="383" depart="344700.00" from="-69" to="30"/>
    <trip id="384" depart="345600.00" from="-21" to="79"/>
    <trip id="385" depart="346500.00" from="2" to="-4"/>
    <trip id="386" depart="347400.00" from="-25" to="0"/>
    <trip id="387" depart="348300.00" from="1" to="-19"/>
    <trip id="388" depart="349200.00" from="80" to="7"/>
    <trip id="389" depart="350100.00" from="-74" to="-21"/>
    <trip id="390" depart="351000.00" from="6" to="-78#1"/>
    <trip id="391" depart="351900.00" from="33" to="-79"/>
    <trip id="392" depart="352800.00" from="-44" to="6"/>
    <trip id="393" depart="353700.00" from="79" to="-41"/>
    <trip id="394" depart="354600.00" from="0" to="-62"/>
    <trip id="395" depart="355500.00" from="73" to="-79"/>
    <trip id="396" depart="356400.00" from="67" to="65"/>
    <trip id="397" depart="357300.00" from="-44" to="49"/>
    <trip id="398" depart="358200.00" from="-67" to="74"/>
    <trip id="399" depart="359100.00" from="-79" to="51"/>
    <trip id="400" depart="360000.00" from="-47" to="-48"/>
    <trip id="401" depart="360900.00" from="17" to="80"/>
    <trip id="402" depart="361800.00" from="-78#0" to="-24"/>
    <trip id="403" depart="362700.00" from="-81" to="-52"/>
    <trip id="404" depart="363600.00" from="1" to="0"/>
    <trip id="405" depart="364500.00" from="-73" to="-50#1"/>
    <trip id="406" depart="365400.00" from="-30" to="30"/>
    <trip id="407" depart="366300.00" from="16" to="-38"/>
    <trip id="408" depart="367200.00" from="46" to="-12"/>
    <trip id="409" depart="368100.00" from="41" to="31"/>
    <trip id="410" depart="369000.00" from="50#1" to="-62"/>
    <trip id="411" depart="369900.00" from="28" to="51"/>
    <trip id="412" depart="370800.00" from="79" to="-78#1"/>
    <trip id="413" depart="371700.00" from="-11" to="-78#1"/>
    <trip id="414" depart="372600.00" from="18" to="66"/>
    <trip id="415" depart="373500.00" from="66" to="-7"/>
    <trip id="416" depart="374400.00" from="-80" to="-73"/>
    <trip id="417" depart="375300.00" from="34" to="-66"/>
    <trip id="418" depart="376200.00" from="24" to="-25"/>
    <trip id="419" depart="377100.00" from="-75" to="78#1"/>
    <trip id="420" depart="378000.00" from="-52" to="30"/>
    <trip id="421" depart="378900.00" from="23" to="62"/>
    <trip id="422" depart="379800.00" from="62" to="62"/>
    <trip id="423" depart="380700.00" from="-61" to="-50#0"/>
    <trip id="424" depart="381600.00" from="33" to="43"/>
    <trip id="425" depart="382500.00" from="66" to="-11"/>
    <trip id="426" depart="383400.00" from="-17" to="21"/>
    <trip id="427" depart="384300.00" from="73" to="80"/>
    <trip id="428" depart="385200.00" from="41" to="-69"/>
    <trip id="429" depart="386100.00" from="-2" to="21"/>
    <trip id="430" depart="387000.00" from="66" to="-7"/>
    <trip id="431" depart="387900.00" from="30" to="69"/>
    <trip id="432" depart="388800.00" from="-12" to="50#0"/>
    <trip id="433" depart="389700.00" from="-48" to="-61"/>
    <trip id="434" depart="390600.00" from="-24" to="-80"/>
    <trip id="435" depart="391500.00" from="15" to="49"/>
    <trip id="436" depart="392400.00" from="-29" to="-18"/>
    <trip id="437" depart="393300.00" from="66" to="20"/>
    <trip id="438" depart="394200.00" from="-4" to="7"/>
    <trip id="439" depart="395100.00" from="-24" to="-74"/>
    <trip id="440" depart="396000.00" from="-42" to="-42"/>
    <trip id="441" depart="396900.00" from="-1" to="50#1"/>
    <trip id="442" depart="397800.00" from="69" to="29"/>
    <trip id="443" depart="398700.00" from="-25" to="-7"/>
    <trip id="444" depart="399600.00" from="-52" to="17"/>
    <trip id="445" depart="400500.00" from="22" to="-68"/>
    <trip id="446" depart="401400.00" from="-41" to="61"/>
    <trip id="447" depart="402300.00" from="-31" to="-62"/>
    <trip id="448" depart="403200.00" from="-76" to="-4"/>
    <trip id="449" depart="404100.00" from="16" to="16"/>
    <trip id="450" depart="405000.00" from="80" to="-48"/>
    <trip id="451" depart="405900.00" from="79" to="24"/>
    <trip id="452" depart="406800.00" from="-44" to="15"/>
    <trip id="453" depart="407700.00" from="3" to="41"/>
    <trip id="454" depart="408600.00" from="-13" to="19"/>
    <trip id="455" depart="409500.00" from="-78#1" to="69"/>
    <trip id="456" depart="410400.00" from="-47" to="50#0"/>
    <trip id="457" depart="411300.00" from="19" to="-58"/>
    <trip id="458" depart="412200.00" from="22" to="20"/>
    <trip id="459" depart="413100.00" from="29" to="34"/>
    <trip id="460" depart="414000.00" from="24" to="6"/>
    <trip id="461" depart="414900.00" from="21" to="69"/>
    <trip id="462" depart="415800.00" from="23" to="-50#0"/>
    <trip id="463" depart="416700.00" from="-7" to="17"/>
    <trip id="464" depart="417600.00" from="4" to="-19"/>
    <trip id="465" depart="418500.00" from="-48" to="41"/>
    <trip id="466" depart="419400.00" from="-29" to="-23"/>
    <trip id="467" depart="420300.00" from="-81" to="78#1"/>
    <trip id="468" depart="421200.00" from="-80" to="7"/>
    <trip id="469" depart="422100.00" from="52" to="-42"/>
    <trip id="470" depart="423000.00" from="52" to="-76"/>
    <trip id="471" depart="423900.00" from="50#1" to="41"/>
    <trip id="472" depart="424800.00" from="-52" to="-21"/>
    <trip id="473" depart="425700.00" from="78#1" to="-24"/>
    <trip id="474" depart="426600.00" from="78#1" to="65"/>
    <trip id="475" depart="427500.00" from="34" to="79"/>
    <trip id="476" depart="428400.00" from="78#1" to="50#1"/>
    <trip id="477" depart="429300.00" from="-60" to="49"/>
    <trip id="478" depart="430200.00" from="-1" to="-81"/>
    <trip id="479" depart="431100.00" from="-73" to="28"/>
    <trip id="480" depart="432000.00" from="28" to="17"/>
    <trip id="481" depart="432900.00" from="51" to="75"/>
    <trip id="482" depart="433800.00" from="-20" to="-4"/>
    <trip id="483" depart="434700.00" from="-10" to="67"/>
    <trip id="484" depart="435600.00" from="15" to="7"/>
    <trip id="485" depart="436500.00" from="-36" to="-14"/>
    <trip id="486" depart="437400.00" from="52" to="7"/>