<?xml version="1.0" encoding="UTF-8"?>

<!-- generated on 2024-09-13 17:34:38 by Eclipse SUMO netconvert Version 1.20.0
<configuration xmlns:xsi="http://www.w3.org/2001/XMLSchema-instance" xsi:noNamespaceSchemaLocation="http://sumo.dlr.de/xsd/netconvertConfiguration.xsd">

    <input>
        <type-files value="${SUMO_HOME}/data/typemap/osmNetconvert.typ.xml"/>
        <osm-files value="osm_bbox.osm.xml.gz"/>
    </input>

    <output>
        <output-file value="osm.net.xml.gz"/>
        <output.street-names value="true"/>
        <output.original-names value="true"/>
    </output>

    <projection>
        <proj.utm value="true"/>
    </projection>

    <processing>
        <geometry.remove value="true"/>
        <roundabouts.guess value="true"/>
    </processing>

    <tls_building>
        <tls.discard-simple value="true"/>
        <tls.join value="true"/>
        <tls.guess-signals value="true"/>
        <tls.default-type value="actuated"/>
    </tls_building>

    <ramp_guessing>
        <ramps.guess value="true"/>
    </ramp_guessing>

    <junctions>
        <junctions.join value="true"/>
        <junctions.corner-detail value="5"/>
    </junctions>

</configuration>
-->

<net version="1.20" junctionCornerDetail="5" limitTurnSpeed="5.50" xmlns:xsi="http://www.w3.org/2001/XMLSchema-instance" xsi:noNamespaceSchemaLocation="http://sumo.dlr.de/xsd/net_file.xsd">

    <location netOffset="-225702.64,2578332.25" convBoundary="0.00,0.00,1975.24,1684.91" origBoundary="-47.681401,-23.291566,-47.662277,-23.276634" projParameter="+proj=utm +zone=23 +ellps=WGS84 +datum=WGS84 +units=m +no_defs"/>

    <type id="highway.cycleway" priority="1" numLanes="1" speed="5.56" allow="bicycle" oneway="0" width="2.00"/>
    <type id="highway.footway" priority="1" numLanes="1" speed="2.78" allow="pedestrian" oneway="1" width="2.00"/>
    <type id="highway.path" priority="1" numLanes="1" speed="5.56" allow="pedestrian bicycle" oneway="0" width="2.00"/>
    <type id="highway.residential" priority="3" numLanes="1" speed="13.89" disallow="tram rail_urban rail rail_electric rail_fast ship container cable_car subway aircraft wheelchair scooter drone" oneway="0"/>
    <type id="highway.secondary" priority="11" numLanes="1" speed="27.78" disallow="tram rail_urban rail rail_electric rail_fast ship container cable_car subway aircraft wheelchair scooter drone" oneway="0"/>
    <type id="highway.secondary_link" priority="6" numLanes="1" speed="22.22" disallow="tram rail_urban rail rail_electric rail_fast ship container cable_car subway aircraft wheelchair scooter drone" oneway="0"/>
    <type id="highway.service" priority="1" numLanes="1" speed="5.56" allow="pedestrian delivery bicycle" oneway="0"/>
    <type id="highway.tertiary" priority="10" numLanes="1" speed="22.22" disallow="tram rail_urban rail rail_electric rail_fast ship container cable_car subway aircraft wheelchair scooter drone" oneway="0"/>
    <type id="highway.tertiary_link" priority="5" numLanes="1" speed="22.22" disallow="tram rail_urban rail rail_electric rail_fast ship container cable_car subway aircraft wheelchair scooter drone" oneway="0"/>
    <type id="highway.unclassified" priority="4" numLanes="1" speed="13.89" disallow="tram rail_urban rail rail_electric rail_fast ship container cable_car subway aircraft wheelchair scooter drone" oneway="0"/>

    <edge id=":11229568579_0" function="internal">
        <lane id=":11229568579_0_0" index="0" allow="pedestrian delivery bicycle" speed="3.65" length="4.67" shape="221.09,159.44 221.51,158.06 222.17,157.45 223.05,157.61 224.16,158.53"/>
    </edge>
    <edge id=":11242433587_0" function="internal">
        <lane id=":11242433587_0_0" index="0" disallow="tram rail_urban rail rail_electric rail_fast ship container cable_car subway aircraft wheelchair scooter drone" speed="27.78" length="7.16" shape="358.29,600.72 364.39,604.46"/>
    </edge>
    <edge id=":11242433587_1" function="internal">
        <lane id=":11242433587_1_0" index="0" allow="pedestrian delivery bicycle" speed="8.03" length="6.74" shape="357.83,604.86 359.98,604.24 361.79,603.97 363.26,604.04 364.39,604.46"/>
    </edge>
    <edge id=":11243916098_0" function="internal">
        <lane id=":11243916098_0_0" index="0" disallow="tram rail_urban rail rail_electric rail_fast ship container cable_car subway aircraft wheelchair scooter drone" speed="13.89" length="5.03" shape="698.73,1108.59 694.29,1106.24"/>
    </edge>
    <edge id=":11913526484_0" function="internal">
        <lane id=":11913526484_0_0" index="0" disallow="tram rail_urban rail rail_electric rail_fast ship container cable_car subway aircraft wheelchair scooter drone" speed="3.65" length="4.67" shape="1603.24,52.47 1602.36,51.33 1602.23,50.44 1602.87,49.81 1604.26,49.44"/>
    </edge>
    <edge id=":11913526485_0" function="internal">
        <lane id=":11913526485_0_0" index="0" disallow="tram rail_urban rail rail_electric rail_fast ship container cable_car subway aircraft wheelchair scooter drone" speed="3.65" length="4.67" shape="1694.71,179.01 1693.96,180.23 1693.17,180.66 1692.36,180.29 1691.52,179.12"/>
    </edge>
    <edge id=":11913526490_0" function="internal">
        <lane id=":11913526490_0_0" index="0" disallow="tram rail_urban rail rail_electric rail_fast ship container cable_car subway aircraft wheelchair scooter drone" speed="3.65" length="4.67" shape="1619.56,159.65 1618.78,160.86 1617.99,161.27 1617.18,160.88 1616.36,159.69"/>
    </edge>
    <edge id=":11913526495_0" function="internal">
        <lane id=":11913526495_0_0" index="0" disallow="tram rail_urban rail rail_electric rail_fast ship container cable_car subway aircraft wheelchair scooter drone" speed="3.65" length="4.67" shape="1658.46,169.39 1657.74,170.64 1656.96,171.08 1656.14,170.73 1655.27,169.58"/>
    </edge>
    <edge id=":11913526496_0" function="internal">
        <lane id=":11913526496_0_0" index="0" disallow="tram rail_urban rail rail_electric rail_fast ship container cable_car subway aircraft wheelchair scooter drone" speed="8.03" length="10.56" shape="1651.00,96.30 1650.45,93.94 1649.12,91.98 1647.00,90.42 1644.10,89.25"/>
    </edge>
    <edge id=":11913526496_1" function="internal">
        <lane id=":11913526496_1_0" index="0" disallow="tram rail_urban rail rail_electric rail_fast ship container cable_car subway aircraft wheelchair scooter drone" speed="13.89" length="14.44" shape="1651.00,96.30 1650.85,92.64 1650.84,89.09 1650.93,85.53 1651.12,81.87"/>
    </edge>
    <edge id=":11913526496_2" function="internal">
        <lane id=":11913526496_2_0" index="0" disallow="tram rail_urban rail rail_electric rail_fast ship container cable_car subway aircraft wheelchair scooter drone" speed="3.65" length="1.44" shape="1651.00,96.30 1651.73,95.06"/>
    </edge>
    <edge id=":11913526496_9" function="internal">
        <lane id=":11913526496_9_0" index="0" disallow="tram rail_urban rail rail_electric rail_fast ship container cable_car subway aircraft wheelchair scooter drone" speed="3.65" length="3.23" shape="1651.73,95.06 1652.50,94.61 1653.32,94.96 1654.19,96.11"/>
    </edge>
    <edge id=":11913526496_3" function="internal">
        <lane id=":11913526496_3_0" index="0" disallow="tram rail_urban rail rail_electric rail_fast ship container cable_car subway aircraft wheelchair scooter drone" speed="13.89" length="14.06" shape="1654.32,82.07 1654.13,85.67 1654.03,89.09 1654.05,92.51 1654.19,96.11"/>
    </edge>
    <edge id=":11913526496_4" function="internal">
        <lane id=":11913526496_4_0" index="0" disallow="tram rail_urban rail rail_electric rail_fast ship container cable_car subway aircraft wheelchair scooter drone" speed="7.66" length="4.28" shape="1654.32,82.07 1653.45,86.26"/>
    </edge>
    <edge id=":11913526496_5" function="internal">
        <lane id=":11913526496_5_0" index="0" disallow="tram rail_urban rail rail_electric rail_fast ship container cable_car subway aircraft wheelchair scooter drone" speed="3.65" length="1.44" shape="1654.32,82.07 1653.45,83.22"/>
    </edge>
    <edge id=":11913526496_10" function="internal">
        <lane id=":11913526496_10_0" index="0" disallow="tram rail_urban rail rail_electric rail_fast ship container cable_car subway aircraft wheelchair scooter drone" speed="7.66" length="10.83" shape="1653.45,86.26 1651.46,88.86 1648.34,89.85 1644.10,89.25"/>
    </edge>
    <edge id=":11913526496_11" function="internal">
        <lane id=":11913526496_11_0" index="0" disallow="tram rail_urban rail rail_electric rail_fast ship container cable_car subway aircraft wheelchair scooter drone" speed="3.65" length="3.23" shape="1653.45,83.22 1652.62,83.57 1651.85,83.12 1651.12,81.87"/>
    </edge>
    <edge id=":11913526496_6" function="internal">
        <lane id=":11913526496_6_0" index="0" disallow="tram rail_urban rail rail_electric rail_fast ship container cable_car subway aircraft wheelchair scooter drone" speed="6.08" length="9.07" shape="1644.99,86.18 1647.54,86.54 1649.41,85.94 1650.60,84.39 1651.12,81.87"/>
    </edge>
    <edge id=":11913526496_7" function="internal">
        <lane id=":11913526496_7_0" index="0" disallow="tram rail_urban rail rail_electric rail_fast ship container cable_car subway aircraft wheelchair scooter drone" speed="9.33" length="14.51" shape="1644.99,86.18 1648.86,87.76 1651.68,89.94 1653.46,92.73 1654.19,96.11"/>
    </edge>
    <edge id=":11913526496_8" function="internal">
        <lane id=":11913526496_8_0" index="0" disallow="tram rail_urban rail rail_electric rail_fast ship container cable_car subway aircraft wheelchair scooter drone" speed="3.65" length="4.67" shape="1644.99,86.18 1645.92,87.28 1646.08,88.16 1645.47,88.82 1644.10,89.25"/>
    </edge>
    <edge id=":11913526497_0" function="internal">
        <lane id=":11913526497_0_0" index="0" disallow="tram rail_urban rail rail_electric rail_fast ship container cable_car subway aircraft wheelchair scooter drone" speed="5.95" length="9.09" shape="1660.82,72.28 1658.28,71.70 1656.40,72.17 1655.20,73.68 1654.67,76.24"/>
    </edge>
    <edge id=":11913526497_1" function="internal">
        <lane id=":11913526497_1_0" index="0" disallow="tram rail_urban rail rail_electric rail_fast ship container cable_car subway aircraft wheelchair scooter drone" speed="13.89" length="14.74" shape="1660.82,72.28 1646.97,67.25"/>
    </edge>
    <edge id=":11913526497_2" function="internal">
        <lane id=":11913526497_2_0" index="0" disallow="tram rail_urban rail rail_electric rail_fast ship container cable_car subway aircraft wheelchair scooter drone" speed="3.65" length="1.44" shape="1660.82,72.28 1659.99,71.10"/>
    </edge>
    <edge id=":11913526497_9" function="internal">
        <lane id=":11913526497_9_0" index="0" disallow="tram rail_urban rail rail_electric rail_fast ship container cable_car subway aircraft wheelchair scooter drone" speed="3.65" length="3.23" shape="1659.99,71.10 1659.90,70.21 1660.56,69.61 1661.97,69.29"/>
    </edge>
    <edge id=":11913526497_3" function="internal">
        <lane id=":11913526497_3_0" index="0" disallow="tram rail_urban rail rail_electric rail_fast ship container cable_car subway aircraft wheelchair scooter drone" speed="13.89" length="14.87" shape="1647.99,64.22 1661.97,69.29"/>
    </edge>
    <edge id=":11913526497_4" function="internal">
        <lane id=":11913526497_4_0" index="0" disallow="tram rail_urban rail rail_electric rail_fast ship container cable_car subway aircraft wheelchair scooter drone" speed="9.10" length="3.85" shape="1647.99,64.22 1651.14,65.89 1651.33,66.12"/>
    </edge>
    <edge id=":11913526497_5" function="internal">
        <lane id=":11913526497_5_0" index="0" disallow="tram rail_urban rail rail_electric rail_fast ship container cable_car subway aircraft wheelchair scooter drone" speed="3.65" length="1.44" shape="1647.99,64.22 1648.87,65.36"/>
    </edge>
    <edge id=":11913526497_10" function="internal">
        <lane id=":11913526497_10_0" index="0" disallow="tram rail_urban rail rail_electric rail_fast ship container cable_car subway aircraft wheelchair scooter drone" speed="9.10" length="11.04" shape="1651.33,66.12 1653.30,68.45 1654.48,71.90 1654.67,76.24"/>
    </edge>
    <edge id=":11913526497_11" function="internal">
        <lane id=":11913526497_11_0" index="0" disallow="tram rail_urban rail rail_electric rail_fast ship container cable_car subway aircraft wheelchair scooter drone" speed="3.65" length="3.23" shape="1648.87,65.36 1649.00,66.25 1648.36,66.88 1646.97,67.25"/>
    </edge>
    <edge id=":11913526497_6" function="internal">
        <lane id=":11913526497_6_0" index="0" disallow="tram rail_urban rail rail_electric rail_fast ship container cable_car subway aircraft wheelchair scooter drone" speed="7.79" length="10.69" shape="1651.48,76.04 1651.36,72.82 1650.57,70.28 1649.11,68.43 1646.97,67.25"/>
    </edge>
    <edge id=":11913526497_7" function="internal">
        <lane id=":11913526497_7_0" index="0" disallow="tram rail_urban rail rail_electric rail_fast ship container cable_car subway aircraft wheelchair scooter drone" speed="7.57" length="15.50" shape="1651.48,76.04 1652.38,71.68 1654.43,69.10 1657.62,68.30 1661.97,69.29"/>
    </edge>
    <edge id=":11913526497_8" function="internal">
        <lane id=":11913526497_8_0" index="0" disallow="tram rail_urban rail rail_electric rail_fast ship container cable_car subway aircraft wheelchair scooter drone" speed="3.65" length="4.67" shape="1651.48,76.04 1652.35,74.89 1653.18,74.54 1653.95,74.99 1654.67,76.24"/>
    </edge>
    <edge id=":1212109889#2-AddedOffRampNode_0" function="internal">
        <lane id=":1212109889#2-AddedOffRampNode_0_0" index="0" disallow="tram rail_urban rail rail_electric rail_fast ship container cable_car subway aircraft wheelchair scooter drone" speed="27.78" length="8.27" shape="323.66,821.55 323.78,819.04 323.10,817.28 322.41,815.51 322.53,813.00"/>
        <lane id=":1212109889#2-AddedOffRampNode_0_1" index="1" disallow="tram rail_urban rail rail_electric rail_fast ship container cable_car subway aircraft wheelchair scooter drone" speed="27.78" length="8.27" shape="323.66,821.55 325.64,813.79"/>
        <lane id=":1212109889#2-AddedOffRampNode_0_2" index="2" disallow="tram rail_urban rail rail_electric rail_fast ship container cable_car subway aircraft wheelchair scooter drone" speed="27.78" length="8.27" shape="326.76,822.34 328.74,814.58"/>
    </edge>
    <edge id=":2822495472_0" function="internal">
        <lane id=":2822495472_0_0" index="0" disallow="tram rail_urban rail rail_electric rail_fast ship container cable_car subway aircraft wheelchair scooter drone" speed="6.31" length="9.04" shape="463.91,662.55 466.24,663.47 468.25,663.38 469.93,662.27 471.28,660.16"/>
    </edge>
    <edge id=":2822495472_1" function="internal">
        <lane id=":2822495472_1_0" index="0" disallow="tram rail_urban rail rail_electric rail_fast ship container cable_car subway aircraft wheelchair scooter drone" speed="27.78" length="11.53" shape="463.91,662.55 473.95,668.21"/>
    </edge>
    <edge id=":2822495472_2" function="internal">
        <lane id=":2822495472_2_0" index="0" disallow="tram rail_urban rail rail_electric rail_fast ship container cable_car subway aircraft wheelchair scooter drone" speed="13.89" length="11.53" shape="466.62,670.70 471.28,660.16"/>
    </edge>
    <edge id=":2822495472_3" function="internal">
        <lane id=":2822495472_3_0" index="0" disallow="tram rail_urban rail rail_electric rail_fast ship container cable_car subway aircraft wheelchair scooter drone" speed="6.30" length="9.04" shape="466.62,670.70 467.94,668.56 469.60,667.43 471.60,667.31 473.95,668.21"/>
    </edge>
    <edge id=":2822495478_0" function="internal">
        <lane id=":2822495478_0_0" index="0" disallow="tram rail_urban rail rail_electric rail_fast ship container cable_car subway aircraft wheelchair scooter drone" speed="27.78" length="11.81" shape="223.03,510.29 212.81,504.37"/>
    </edge>
    <edge id=":2822495478_1" function="internal">
        <lane id=":2822495478_1_0" index="0" disallow="tram rail_urban rail rail_electric rail_fast ship container cable_car subway aircraft wheelchair scooter drone" speed="3.65" length="1.44" shape="223.03,510.29 222.39,508.99"/>
    </edge>
    <edge id=":2822495478_6" function="internal">
        <lane id=":2822495478_6_0" index="0" disallow="tram rail_urban rail rail_electric rail_fast ship container cable_car subway aircraft wheelchair scooter drone" speed="3.65" length="3.23" shape="222.39,508.99 222.44,508.10 223.19,507.61 224.63,507.52"/>
    </edge>
    <edge id=":2822495478_2" function="internal">
        <lane id=":2822495478_2_0" index="0" disallow="tram rail_urban rail rail_electric rail_fast ship container cable_car subway aircraft wheelchair scooter drone" speed="5.63" length="9.28" shape="224.75,500.84 222.45,502.47 221.67,504.13 222.39,505.81 224.63,507.52"/>
    </edge>
    <edge id=":2822495478_3" function="internal">
        <lane id=":2822495478_3_0" index="0" disallow="tram rail_urban rail rail_electric rail_fast ship container cable_car subway aircraft wheelchair scooter drone" speed="9.86" length="12.73" shape="224.75,500.84 220.47,502.94 217.05,504.22 214.50,504.70 212.81,504.37"/>
    </edge>
    <edge id=":2822495478_4" function="internal">
        <lane id=":2822495478_4_0" index="0" disallow="tram rail_urban rail rail_electric rail_fast ship container cable_car subway aircraft wheelchair scooter drone" speed="27.78" length="11.79" shape="214.43,501.60 224.63,507.52"/>
    </edge>
    <edge id=":2822495478_5" function="internal">
        <lane id=":2822495478_5_0" index="0" disallow="tram rail_urban rail rail_electric rail_fast ship container cable_car subway aircraft wheelchair scooter drone" speed="3.65" length="1.44" shape="214.43,501.60 215.06,502.90"/>
    </edge>
    <edge id=":2822495478_7" function="internal">
        <lane id=":2822495478_7_0" index="0" disallow="tram rail_urban rail rail_electric rail_fast ship container cable_car subway aircraft wheelchair scooter drone" speed="3.65" length="3.23" shape="215.06,502.90 215.00,503.79 214.25,504.28 212.81,504.37"/>
    </edge>
    <edge id=":2822495481_0" function="internal">
        <lane id=":2822495481_0_0" index="0" disallow="tram rail_urban rail rail_electric rail_fast ship container cable_car subway aircraft wheelchair scooter drone" speed="27.78" length="1.87" shape="207.61,13.66 208.79,12.22"/>
    </edge>
    <edge id=":2822495481_1" function="internal">
        <lane id=":2822495481_1_0" index="0" disallow="tram rail_urban rail rail_electric rail_fast ship container cable_car subway aircraft wheelchair scooter drone" speed="3.65" length="4.67" shape="207.61,13.66 208.10,12.31 208.78,11.73 209.66,11.93 210.72,12.90"/>
    </edge>
    <edge id=":2823062392_0" function="internal">
        <lane id=":2823062392_0_0" index="0" disallow="tram rail_urban rail rail_electric rail_fast ship container cable_car subway aircraft wheelchair scooter drone" speed="3.65" length="4.67" shape="18.24,573.64 16.83,573.95 15.98,573.68 15.68,572.84 15.93,571.42"/>
    </edge>
    <edge id=":2823064012_0" function="internal">
        <lane id=":2823064012_0_0" index="0" disallow="tram rail_urban rail rail_electric rail_fast ship container cable_car subway aircraft wheelchair scooter drone" speed="13.89" length="9.54" shape="268.35,477.72 259.92,482.20"/>
    </edge>
    <edge id=":2823064012_1" function="internal">
        <lane id=":2823064012_1_0" index="0" disallow="tram rail_urban rail rail_electric rail_fast ship container cable_car subway aircraft wheelchair scooter drone" speed="5.90" length="8.39" shape="268.35,477.72 265.67,478.86 263.60,479.10 262.12,478.45 261.24,476.91"/>
    </edge>
    <edge id=":2823064012_2" function="internal">
        <lane id=":2823064012_2_0" index="0" disallow="tram rail_urban rail rail_electric rail_fast ship container cable_car subway aircraft wheelchair scooter drone" speed="6.73" length="1.24" shape="264.32,476.02 264.38,477.26"/>
    </edge>
    <edge id=":2823064012_3" function="internal">
        <lane id=":2823064012_3_0" index="0" disallow="tram rail_urban rail rail_electric rail_fast ship container cable_car subway aircraft wheelchair scooter drone" speed="3.65" length="1.11" shape="264.32,476.02 263.98,477.07"/>
    </edge>
    <edge id=":2823064012_4" function="internal">
        <lane id=":2823064012_4_0" index="0" disallow="tram rail_urban rail rail_electric rail_fast ship container cable_car subway aircraft wheelchair scooter drone" speed="6.73" length="6.96" shape="264.38,477.26 264.41,477.66 263.70,479.23 262.21,480.75 259.92,482.20"/>
    </edge>
    <edge id=":2823064012_5" function="internal">
        <lane id=":2823064012_5_0" index="0" disallow="tram rail_urban rail rail_electric rail_fast ship container cable_car subway aircraft wheelchair scooter drone" speed="3.65" length="3.57" shape="263.98,477.07 263.88,477.39 263.23,478.00 262.35,477.84 261.24,476.91"/>
    </edge>
    <edge id=":2823064017_0" function="internal">
        <lane id=":2823064017_0_0" index="0" disallow="tram rail_urban rail rail_electric rail_fast ship container cable_car subway aircraft wheelchair scooter drone" speed="6.29" length="10.25" shape="301.07,468.58 300.07,465.47 298.58,463.66 296.60,463.15 294.13,463.95"/>
    </edge>
    <edge id=":2823064017_1" function="internal">
        <lane id=":2823064017_1_0" index="0" disallow="tram rail_urban rail rail_electric rail_fast ship container cable_car subway aircraft wheelchair scooter drone" speed="27.78" length="12.87" shape="301.07,468.58 298.54,455.96"/>
    </edge>
    <edge id=":2823064017_2" function="internal">
        <lane id=":2823064017_2_0" index="0" disallow="tram rail_urban rail rail_electric rail_fast ship container cable_car subway aircraft wheelchair scooter drone" speed="6.56" length="3.71" shape="301.07,468.58 300.90,464.88"/>
    </edge>
    <edge id=":2823064017_3" function="internal">
        <lane id=":2823064017_3_0" index="0" disallow="tram rail_urban rail rail_electric rail_fast ship container cable_car subway aircraft wheelchair scooter drone" speed="3.65" length="1.44" shape="301.07,468.58 301.62,467.25"/>
    </edge>
    <edge id=":2823064017_8" function="internal">
        <lane id=":2823064017_8_0" index="0" disallow="tram rail_urban rail rail_electric rail_fast ship container cable_car subway aircraft wheelchair scooter drone" speed="6.56" length="9.72" shape="300.90,464.88 302.22,462.85 305.01,462.50 309.30,463.84"/>
    </edge>
    <edge id=":2823064017_9" function="internal">
        <lane id=":2823064017_9_0" index="0" disallow="tram rail_urban rail rail_electric rail_fast ship container cable_car subway aircraft wheelchair scooter drone" speed="3.65" length="3.23" shape="301.62,467.25 302.32,466.70 303.19,466.94 304.21,467.95"/>
    </edge>
    <edge id=":2823064017_4" function="internal">
        <lane id=":2823064017_4_0" index="0" disallow="tram rail_urban rail rail_electric rail_fast ship container cable_car subway aircraft wheelchair scooter drone" speed="9.87" length="11.88" shape="301.68,455.33 302.58,458.00 304.16,460.31 306.39,462.26 309.30,463.84"/>
    </edge>
    <edge id=":2823064017_5" function="internal">
        <lane id=":2823064017_5_0" index="0" disallow="tram rail_urban rail rail_electric rail_fast ship container cable_car subway aircraft wheelchair scooter drone" speed="27.78" length="12.87" shape="301.68,455.33 304.21,467.95"/>
    </edge>
    <edge id=":2823064017_6" function="internal">
        <lane id=":2823064017_6_0" index="0" disallow="tram rail_urban rail rail_electric rail_fast ship container cable_car subway aircraft wheelchair scooter drone" speed="8.37" length="2.21" shape="301.68,455.33 301.52,457.43 301.46,457.52"/>
    </edge>
    <edge id=":2823064017_7" function="internal">
        <lane id=":2823064017_7_0" index="0" disallow="tram rail_urban rail rail_electric rail_fast ship container cable_car subway aircraft wheelchair scooter drone" speed="3.65" length="1.44" shape="301.68,455.33 301.13,456.67"/>
    </edge>
    <edge id=":2823064017_10" function="internal">
        <lane id=":2823064017_10_0" index="0" disallow="tram rail_urban rail rail_electric rail_fast ship container cable_car subway aircraft wheelchair scooter drone" speed="8.37" length="9.92" shape="301.46,457.52 300.21,459.56 297.75,461.73 294.13,463.95"/>
    </edge>
    <edge id=":2823064017_11" function="internal">
        <lane id=":2823064017_11_0" index="0" disallow="tram rail_urban rail rail_electric rail_fast ship container cable_car subway aircraft wheelchair scooter drone" speed="3.65" length="3.23" shape="301.13,456.67 300.43,457.22 299.56,456.98 298.54,455.96"/>
    </edge>
    <edge id=":2823064022_0" function="internal">
        <lane id=":2823064022_0_0" index="0" disallow="tram rail_urban rail rail_electric rail_fast ship container cable_car subway aircraft wheelchair scooter drone" speed="6.48" length="9.03" shape="86.32,440.21 83.92,439.56 81.91,439.83 80.26,441.02 78.99,443.15"/>
    </edge>
    <edge id=":2823064022_1" function="internal">
        <lane id=":2823064022_1_0" index="0" disallow="tram rail_urban rail rail_electric rail_fast ship container cable_car subway aircraft wheelchair scooter drone" speed="27.78" length="14.40" shape="86.32,440.21 73.12,434.46"/>
    </edge>
    <edge id=":2823064022_2" function="internal">
        <lane id=":2823064022_2_0" index="0" disallow="tram rail_urban rail rail_electric rail_fast ship container cable_car subway aircraft wheelchair scooter drone" speed="3.65" length="1.44" shape="86.32,440.21 85.54,439.00"/>
    </edge>
    <edge id=":2823064022_12" function="internal">
        <lane id=":2823064022_12_0" index="0" disallow="tram rail_urban rail rail_electric rail_fast ship container cable_car subway aircraft wheelchair scooter drone" speed="3.65" length="3.23" shape="85.54,439.00 85.49,438.11 86.17,437.54 87.59,437.28"/>
    </edge>
    <edge id=":2823064022_3" function="internal">
        <lane id=":2823064022_3_0" index="0" disallow="tram rail_urban rail rail_electric rail_fast ship container cable_car subway aircraft wheelchair scooter drone" speed="6.47" length="9.95" shape="84.31,429.53 83.34,431.87 83.56,433.94 84.98,435.75 87.59,437.28"/>
    </edge>
    <edge id=":2823064022_4" function="internal">
        <lane id=":2823064022_4_0" index="0" disallow="tram rail_urban rail rail_electric rail_fast ship container cable_car subway aircraft wheelchair scooter drone" speed="13.89" length="14.66" shape="84.31,429.53 82.62,432.79 81.37,436.20 80.26,439.67 78.99,443.15"/>
    </edge>
    <edge id=":2823064022_5" function="internal">
        <lane id=":2823064022_5_0" index="0" disallow="tram rail_urban rail rail_electric rail_fast ship container cable_car subway aircraft wheelchair scooter drone" speed="8.27" length="13.47" shape="84.31,429.53 81.79,432.72 79.08,434.61 76.19,435.19 73.12,434.46"/>
    </edge>
    <edge id=":2823064022_6" function="internal">
        <lane id=":2823064022_6_0" index="0" disallow="tram rail_urban rail rail_electric rail_fast ship container cable_car subway aircraft wheelchair scooter drone" speed="27.78" length="14.40" shape="74.40,431.52 87.59,437.28"/>
    </edge>
    <edge id=":2823064022_7" function="internal">
        <lane id=":2823064022_7_0" index="0" disallow="tram rail_urban rail rail_electric rail_fast ship container cable_car subway aircraft wheelchair scooter drone" speed="8.05" length="4.04" shape="74.40,431.52 77.69,433.56 77.79,433.70"/>
    </edge>
    <edge id=":2823064022_8" function="internal">
        <lane id=":2823064022_8_0" index="0" disallow="tram rail_urban rail rail_electric rail_fast ship container cable_car subway aircraft wheelchair scooter drone" speed="3.65" length="1.44" shape="74.40,431.52 75.18,432.74"/>
    </edge>
    <edge id=":2823064022_13" function="internal">
        <lane id=":2823064022_13_0" index="0" disallow="tram rail_urban rail rail_electric rail_fast ship container cable_car subway aircraft wheelchair scooter drone" speed="8.05" length="10.17" shape="77.79,433.70 79.55,436.18 79.98,439.37 78.99,443.15"/>
    </edge>
    <edge id=":2823064022_14" function="internal">
        <lane id=":2823064022_14_0" index="0" disallow="tram rail_urban rail rail_electric rail_fast ship container cable_car subway aircraft wheelchair scooter drone" speed="3.65" length="3.23" shape="75.18,432.74 75.22,433.63 74.54,434.20 73.12,434.46"/>
    </edge>
    <edge id=":2823064022_9" function="internal">
        <lane id=":2823064022_9_0" index="0" disallow="tram rail_urban rail rail_electric rail_fast ship container cable_car subway aircraft wheelchair scooter drone" speed="6.56" length="9.10" shape="76.04,441.91 76.68,439.49 76.40,437.44 75.22,435.76 73.12,434.46"/>
    </edge>
    <edge id=":2823064022_10" function="internal">
        <lane id=":2823064022_10_0" index="0" disallow="tram rail_urban rail rail_electric rail_fast ship container cable_car subway aircraft wheelchair scooter drone" speed="7.98" length="14.24" shape="76.04,441.91 78.04,438.56 80.64,436.67 83.82,436.24 87.59,437.28"/>
    </edge>
    <edge id=":2823064022_11" function="internal">
        <lane id=":2823064022_11_0" index="0" disallow="tram rail_urban rail rail_electric rail_fast ship container cable_car subway aircraft wheelchair scooter drone" speed="3.65" length="4.67" shape="76.04,441.91 77.24,441.12 78.13,441.06 78.71,441.74 78.99,443.15"/>
    </edge>
    <edge id=":2823064029_0" function="internal">
        <lane id=":2823064029_0_0" index="0" disallow="tram rail_urban rail rail_electric rail_fast ship container cable_car subway aircraft wheelchair scooter drone" speed="6.39" length="9.04" shape="115.10,416.44 113.69,414.37 111.98,413.30 109.96,413.21 107.63,414.10"/>
    </edge>
    <edge id=":2823064029_1" function="internal">