<?xml version="1.0" encoding="UTF-8"?>

<!-- generated on 2024-09-13 17:34:40.570690 by osmWebWizard.py UNKNOWN
<configuration>
    <net-file value="/home/renan/Sumo/2024-09-13-17-34-33/osm.net.xml.gz"/>
    <output-trip-file value="/home/renan/Sumo/2024-09-13-17-34-33/osm.passenger.trips.xml"/>
    <route-file value="/home/renan/Sumo/2024-09-13-17-34-33/osm.passenger.rou.xml"/>
    <prefix value="veh"/>
    <trip-attributes value="departLane=&quot;best&quot;"/>
    <fringe-start-attributes value="departSpeed=&quot;max&quot;"/>
    <vehicle-class value="passenger"/>
    <lanes value="True"/>
    <fringe-factor value="5"/>
    <allow-fringe.min-length value="1000.0"/>
    <via-edge-types value="highway.motorway,highway.motorway_link,highway.trunk_link,highway.primary_link,highway.secondary_link,highway.tertiary_link"/>
    <min-distance value="300.0"/>
    <min-distance.fringe value="10.0"/>
    <remove-loops value="True"/>
    <validate value="True"/>
    <insertion-density value="12.0"/>
</configuration>
-->

<!-- generated on 2024-09-13 17:34:40 by Eclipse SUMO duarouter Version 1.20.0
<configuration xmlns:xsi="http://www.w3.org/2001/XMLSchema-instance" xsi:noNamespaceSchemaLocation="http://sumo.dlr.de/xsd/duarouterConfiguration.xsd">

    <input>
        <net-file value="/home/renan/Sumo/2024-09-13-17-34-33/osm.net.xml.gz"/>
        <route-files value="/home/renan/Sumo/2024-09-13-17-34-33/osm.passenger.trips.xml"/>
    </input>

    <output>
        <output-file value="/home/renan/Sumo/2024-09-13-17-34-33/osm.passenger.trips.xml.tmp"/>
        <alternatives-output value="NUL"/>
        <write-trips value="true"/>
    </output>

    <processing>
        <remove-loops value="true"/>
    </processing>

    <time>
        <begin value="0.0"/>
        <end value="3600.0"/>
    </time>

    <report>
        <no-warnings value="true"/>
        <ignore-errors value="true"/>
        <no-step-log value="true"/>
    </report>

</configuration>
-->

<routes xmlns:xsi="http://www.w3.org/2001/XMLSchema-instance" xsi:noNamespaceSchemaLocation="http://sumo.dlr.de/xsd/routes_file.xsd">
    <vType id="veh_passenger" vClass="passenger"/>


    <!-- Vehicles, persons and containers (sorted by depart) -->
    <!-- <flow id="flow" begin="0.00" from="flow_b" to="flow_e" end="100.00" number="10">
        <param key="has.fcd.device" value="false"/>
        <stop parkingArea="pa_0" duration="100"/>
    </flow>  -->

    <trip id="veh0" type="veh_passenger" depart="0.00" departLane="best" from="280671586#1" to="280671175#3"/>
    <trip id="veh1" type="veh_passenger" depart="4.37" departLane="best" departSpeed="max" from="-315434977#2" to="-280730834#4"/>
    <trip id="veh2" type="veh_passenger" depart="8.74" departLane="best" from="280730834#4" to="280671638#5"/>
    <trip id="veh3" type="veh_passenger" depart="13.12" departLane="best" departSpeed="max" from="324337874" to="280671171#3"/>
    <trip id="veh4" type="veh_passenger" depart="17.49" departLane="best" from="1059074841#2" to="-1093661427"/>
    <trip id="veh5" type="veh_passenger" depart="21.86" departLane="best" from="-280730834#0" to="277859465"/>
    <trip id="veh6" type="veh_passenger" depart="26.23" departLane="best" departSpeed="max" from="-1066433990" to="-280730802#0"/>
    <trip id="veh7" type="veh_passenger" depart="30.60" departLane="best" from="280671589#6" to="280671171#5"/>
    <trip id="veh8" type="veh_passenger" depart="34.97" departLane="best" from="-280730834#2" to="280671205#1"/>
    <trip id="veh9" type="veh_passenger" depart="39.35" departLane="best" from="-315276597#2" to="-1058183576#1"/>
    <trip id="veh10" type="veh_passenger" depart="43.72" departLane="best" from="315276594#0" to="280730802#1"/>
    <trip id="veh11" type="veh_passenger" depart="48.09" departLane="best" from="-381597731#2" to="-280671589#0"/>
    <trip id="veh12" type="veh_passenger" depart="52.46" departLane="best" from="-279226833#0" to="-280671175#1"/>
    <trip id="veh13" type="veh_passenger" depart="56.83" departLane="best" from="315547666#0" to="-280671210#3"/>
    <trip id="veh14" type="veh_passenger" depart="61.20" departLane="best" from="315276594#2" to="280730854#1"/>
    <trip id="veh15" type="veh_passenger" depart="65.58" departLane="best" from="279226839#2" to="692490068"/>
    <trip id="veh17" type="veh_passenger" depart="74.32" departLane="best" from="315434974#2" to="-280671585#6"/>
    <trip id="veh18" type="veh_passenger" depart="78.69" departLane="best" from="-317301266#2" to="280671202#4"/>
    <trip id="veh19" type="veh_passenger" depart="83.06" departLane="best" from="280730801#1" to="-1232520514"/>
    <trip id="veh20" type="veh_passenger" depart="87.43" departLane="best" departSpeed="max" from="-280730834#8" to="-324337866#2"/>
    <trip id="veh21" type="veh_passenger" depart="91.81" departLane="best" departSpeed="max" from="-277859456" to="-280730847#2"/>
    <trip id="veh23" type="veh_passenger" depart="100.55" departLane="best" from="280671585#4" to="1057913381#0"/>
    <trip id="veh24" type="veh_passenger" depart="104.92" departLane="best" from="-664324656" to="-280730810"/>
    <trip id="veh25" type="veh_passenger" depart="109.29" departLane="best" departSpeed="max" from="-315311292#1" to="-368615152#1"/>
    <trip id="veh26" type="veh_passenger" depart="113.66" departLane="best" from="280671589#3" to="280671211#4"/>
    <trip id="veh27" type="veh_passenger" depart="118.04" departLane="best" from="280671589#0" to="1058183579"/>
    <trip id="veh28" type="veh_passenger" depart="122.41" departLane="best" from="918954503" to="692492909#1"/>
    <trip id="veh29" type="veh_passenger" depart="126.78" departLane="best" from="280671171#6" to="-280730799#0"/>
    <trip id="veh30" type="veh_passenger" depart="131.15" departLane="best" from="-315499519" to="315276593#2"/>
    <trip id="veh31" type="veh_passenger" depart="135.52" departLane="best" from="280730841#1" to="-1093662894"/>
    <trip id="veh32" type="veh_passenger" depart="139.89" departLane="best" from="-324342194#1" to="-315434974#3"/>
    <trip id="veh33" type="veh_passenger" depart="144.27" departLane="best" departSpeed="max" from="-280730802#1" to="381597731#4"/>
    <trip id="veh34" type="veh_passenger" depart="148.64" departLane="best" from="324337864" to="-368615152#0"/>
    <trip id="veh35" type="veh_passenger" depart="153.01" departLane="best" from="280671594#0" to="1059074840#6"/>
    <trip id="veh36" type="veh_passenger" depart="157.38" departLane="best" from="324342192" to="1213454207#5"/>
    <trip id="veh37" type="veh_passenger" depart="161.75" departLane="best" departSpeed="max" from="-315311292#1" to="-280730900#0"/>
    <trip id="veh38" type="veh_passenger" depart="166.12" departLane="best" departSpeed="max" from="280671172" to="-315434974#0"/>
    <trip id="veh39" type="veh_passenger" depart="170.50" departLane="best" from="1058183576#3" to="-280730826"/>
    <trip id="veh40" type="veh_passenger" depart="174.87" departLane="best" from="968251652" to="277859480#1"/>
    <trip id="veh41" type="veh_passenger" depart="179.24" departLane="best" from="-279226832#0" to="-1273555689"/>
    <trip id="veh42" type="veh_passenger" depart="183.61" departLane="best" from="-280671175#1" to="-280671589#1"/>
    <trip id="veh43" type="veh_passenger" depart="187.98" departLane="best" from="315276592#4" to="1093695450#0"/>
    <trip id="veh45" type="veh_passenger" depart="196.73" departLane="best" from="919351676#3" to="279226843#2"/>
    <trip id="veh46" type="veh_passenger" depart="201.10" departLane="best" from="280671593#1" to="324337861#4"/>
    <trip id="veh47" type="veh_passenger" depart="205.47" departLane="best" from="-1058183578#3" to="280730847#3"/>
    <trip id="veh48" type="veh_passenger" depart="209.84" departLane="best" from="280671628#1" to="279226845#3"/>
    <trip id="veh49" type="veh_passenger" depart="214.21" departLane="best" departSpeed="max" from="-315311292#1" to="280671594#0"/>
    <trip id="veh50" type="veh_passenger" depart="218.59" departLane="best" from="280671177#0" to="1211083013#0"/>
    <trip id="veh51" type="veh_passenger" depart="222.96" departLane="best" from="324337863#1" to="-315434974#0"/>
    <trip id="veh52" type="veh_passenger" depart="227.33" departLane="best" from="277859459#0" to="-280671638#0"/>
    <trip id="veh53" type="veh_passenger" depart="231.70" departLane="best" from="324342191#0" to="324337866#2"/>
    <trip id="veh54" type="veh_passenger" depart="236.07" departLane="best" from="324337863#1" to="280671592"/>
    
    <trip id="veh55" type="veh_passenger" depart="240.44" departLane="best" from="280671207#4" to="-280671587#0"/>
    <trip id="veh56" type="veh_passenger" depart="244.82" departLane="best" from="280730893#2" to="279226846#1"/>
    <trip id="veh57" type="veh_passenger" depart="249.19" departLane="best" from="-1057913381#0" to="-399554878"/>
    <trip id="veh58" type="veh_passenger" depart="253.56" departLane="best" from="324337866#1" to="-315547661"/>
    <trip id="veh59" type="veh_passenger" depart="257.93" departLane="best" departSpeed="max" from="-324340363" to="-277859480#0"/>
    <trip id="veh60" type="veh_passenger" depart="262.30" departLane="best" from="324337866#0" to="381597731#6"/>
    <trip id="veh63" type="veh_passenger" depart="275.42" departLane="best" from="280730904#0" to="-280671210#3"/>
    <trip id="veh64" type="veh_passenger" depart="279.79" departLane="best" from="1213454207#5" to="280671175#1"/>
    <trip id="veh65" type="veh_passenger" depart="284.16" departLane="best" departSpeed="max" from="-315311292#1" to="324337869#0"/>
    <trip id="veh66" type="veh_passenger" depart="288.53" departLane="best" from="1093005084" to="-280730822"/>
    <trip id="veh67" type="veh_passenger" depart="292.90" departLane="best" from="279226843#2" to="280730854#1"/>
    <trip id="veh68" type="veh_passenger" depart="297.28" departLane="best" from="919351676#2" to="-280671611#1"/>
    <trip id="veh69" type="veh_passenger" depart="301.65" departLane="best" from="1093695450#0" to="-279226832#2"/>
    <trip id="veh70" type="veh_passenger" depart="306.02" departLane="best" from="-280671196" to="280730834#7"/>
    <trip id="veh71" type="veh_passenger" depart="310.39" departLane="best" from="-381597731#0" to="-280671204#2"/>
    <trip id="veh72" type="veh_passenger" depart="314.76" departLane="best" from="280730843#0" to="-280730834#1"/>
    <trip id="veh73" type="veh_passenger" depart="319.13" departLane="best" from="280730841#1" to="324342192"/>
    <trip id="veh74" type="veh_passenger" depart="323.51" departLane="best" from="317301266#0" to="-279226835#0"/>
    <trip id="veh75" type="veh_passenger" depart="327.88" departLane="best" from="280730848#1" to="280671633#2"/>
    <trip id="veh76" type="veh_passenger" depart="332.25" departLane="best" departSpeed="max" from="-280730823" to="-280671211#3"/>
    <trip id="veh77" type="veh_passenger" depart="336.62" departLane="best" from="315276594#2" to="-280730799#4"/>
    <trip id="veh78" type="veh_passenger" depart="340.99" departLane="best" from="279226838#1" to="1211079432#4"/>
    <trip id="veh79" type="veh_passenger" depart="345.36" departLane="best" from="1093005084" to="1232520514"/>
    <trip id="veh80" type="veh_passenger" depart="349.74" departLane="best" departSpeed="max" from="280730826" to="-280671638#1"/>
    <trip id="veh81" type="veh_passenger" depart="354.11" departLane="best" from="891820743#1" to="-280671177#0"/>
    <trip id="veh82" type="veh_passenger" depart="358.48" departLane="best" from="1058183578#3" to="475056040#1"/>
    <trip id="veh83" type="veh_passenger" depart="362.85" departLane="best" from="-317301266#2" to="-280730902#3"/>
    <trip id="veh84" type="veh_passenger" depart="367.22" departLane="best" from="280671638#4" to="-1212119181"/>
    <trip id="veh86" type="veh_passenger" depart="375.97" departLane="best" from="-296770406" to="324342196#3"/>
    <trip id="veh87" type="veh_passenger" depart="380.34" departLane="best" from="1211079432#0" to="324337861#4"/>
    <trip id="veh89" type="veh_passenger" depart="389.08" departLane="best" from="973910286#1" to="315724513"/>
    <trip id="veh90" type="veh_passenger" depart="393.45" departLane="best" from="692490068" to="324342197"/>
    <trip id="veh91" type="veh_passenger" depart="397.83" departLane="best" from="315547666#1" to="-280671611#0"/>
    <trip id="veh92" type="veh_passenger" depart="402.20" departLane="best" from="1241141173#2" to="-280730822"/>
    <trip id="veh93" type="veh_passenger" depart="406.57" departLane="best" from="-1058183578#0" to="-277859480#1"/>
    <trip id="veh95" type="veh_passenger" depart="415.31" departLane="best" departSpeed="max" from="-315311292#1" to="315276594#1"/>
    <trip id="veh96" type="veh_passenger" depart="419.68" departLane="best" from="1212109889#2" to="1093695450#1"/>
    <trip id="veh97" type="veh_passenger" depart="424.06" departLane="best" departSpeed="max" from="473223335" to="-919351676#2"/>
    <trip id="veh98" type="veh_passenger" depart="428.43" departLane="best" from="280671171#5" to="280730844#0"/>
    <trip id="veh99" type="veh_passenger" depart="432.80" departLane="best" from="-280671585#5" to="-324337874"/>
    <trip id="veh100" type="veh_passenger" depart="437.17" departLane="best" from="-692490067" to="280671202#6"/>
    <trip id="veh101" type="veh_passenger" depart="441.54" departLane="best" from="279226844#1" to="315273566#0"/>
    <trip id="veh103" type="veh_passenger" depart="450.29" departLane="best" from="-280671586#1" to="475056040#1"/>
    <trip id="veh104" type="veh_passenger" depart="454.66" departLane="best" departSpeed="max" from="-277859456" to="-280730793#0"/>
    <trip id="veh105" type="veh_passenger" depart="459.03" departLane="best" from="280671202#2" to="-280671638#3"/>
    <trip id="veh106" type="veh_passenger" depart="463.40" departLane="best" departSpeed="max" from="-280730847#4" to="-280671205#0"/>
    <trip id="veh107" type="veh_passenger" depart="467.77" departLane="best" departSpeed="max" from="324337874" to="-280730893#2"/>
    <trip id="veh108" type="veh_passenger" depart="472.14" departLane="best" from="1059074840#5" to="280671203#4"/>
    <trip id="veh109" type="veh_passenger" depart="476.52" departLane="best" from="279226834#1" to="324342204#1"/>
    <trip id="veh110" type="veh_passenger" depart="480.89" departLane="best" from="280671612#1" to="-324340373#1"/>
    <trip id="veh111" type="veh_passenger" depart="485.26" departLane="best" from="-324342194#1" to="315273567#1"/>
    <trip id="veh112" type="veh_passenger" depart="489.63" departLane="best" from="-277859419#1" to="1213454207#0"/>
    <trip id="veh113" type="veh_passenger" depart="494.00" departLane="best" from="973910286#0" to="-919351676#3"/>
    <trip id="veh114" type="veh_passenger" depart="498.37" departLane="best" departSpeed="max" from="-277859419#2" to="-280730822"/>
    <trip id="veh115" type="veh_passenger" depart="502.75" departLane="best" departSpeed="max" from="-315311292#1" to="324342204#0"/>
    <trip id="veh116" type="veh_passenger" depart="507.12" departLane="best" from="-640295915#3" to="-280671589#3"/>
    <trip id="veh117" type="veh_passenger" depart="511.49" departLane="best" departSpeed="max" from="315435015" to="280730823"/>
    <trip id="veh118" type="veh_passenger" depart="515.86" departLane="best" from="280671208#1" to="918460593"/>
    <trip id="veh119" type="veh_passenger" depart="520.23" departLane="best" from="280671592" to="-1058183576#2"/>
    <trip id="veh120" type="veh_passenger" depart="524.60" departLane="best" from="315311260#3" to="-324340373#0"/>
    <trip id="veh121" type="veh_passenger" depart="528.98" departLane="best" from="-280671208#0" to="-280671203#3"/>
    <trip id="veh122" type="veh_passenger" depart="533.35" departLane="best" from="-315434976" to="-280671210#4"/>
    <trip id="veh123" type="veh_passenger" depart="537.72" departLane="best" from="280671585#2" to="-315434974#0"/>
    <trip id="veh124" type="veh_passenger" depart="542.09" departLane="best" from="1273555688" to="324342192"/>
    <trip id="veh125" type="veh_passenger" depart="546.46" departLane="best" from="315547662" to="-280671172"/>
    <trip id="veh126" type="veh_passenger" depart="550.84" departLane="best" from="1093005084" to="315724514"/>
    <trip id="veh127" type="veh_passenger" depart="555.21" departLane="best" from="-1057937779" to="315276592#6"/>
    <trip id="veh128" type="veh_passenger" depart="559.58" departLane="best" from="280671585#6" to="-315434974#0"/>
    <trip id="veh129" type="veh_passenger" depart="563.95" departLane="best" departSpeed="max" from="280730841#0" to="280671175#3"/>
    <trip id="veh130" type="veh_passenger" depart="568.32" departLane="best" from="-1093383022#1" to="-1058183578#0"/>
    <trip id="veh131" type="veh_passenger" depart="572.69" departLane="best" departSpeed="max" from="-277859419#2" to="324340363"/>
    <trip id="veh132" type="veh_passenger" depart="577.07" departLane="best" from="324340373#0" to="280671171#5"/>
    <trip id="veh133" type="veh_passenger" depart="581.44" departLane="best" departSpeed="max" from="315435015" to="280671203#4"/>
    <trip id="veh134" type="veh_passenger" depart="585.81" departLane="best" from="315276593#1" to="324337861#3"/>
    <trip id="veh135" type="veh_passenger" depart="590.18" departLane="best" from="324340369#0" to="280730813"/>
    <trip id="veh136" type="veh_passenger" depart="594.55" departLane="best" from="-280730904#1" to="-280671179"/>
    <trip id="veh137" type="veh_passenger" depart="598.92" departLane="best" from="315273570#4" to="324340363"/>
    <trip id="veh138" type="veh_passenger" depart="603.30" departLane="best" from="1058183583#1" to="-280671586#2"/>
    <trip id="veh139" type="veh_passenger" depart="607.67" departLane="best" from="280671585#5" to="-324342201#0"/>
    <trip id="veh140" type="veh_passenger" depart="612.04" departLane="best" from="315471382#2" to="692494180"/>
    <trip id="veh141" type="veh_passenger" depart="616.41" departLane="best" from="315311260#0" to="324337948"/>
    <trip id="veh142" type="veh_passenger" depart="620.78" departLane="best" departSpeed="max" from="-1059074841#3" to="-280730900#1"/>
    <trip id="veh143" type="veh_passenger" depart="625.15" departLane="best" from="315276593#6" to="324337862#0"/>
    <trip id="veh144" type="veh_passenger" depart="629.53" departLane="best" from="315311260#0" to="-315434974#2"/>
    <trip id="veh145" type="veh_passenger" depart="633.90" departLane="best" from="315276592#1-AddedOnRampEdge" to="280671196"/>
    <trip id="veh146" type="veh_passenger" depart="638.27" departLane="best" from="324337861#6" to="324337861#1"/>
    <trip id="veh147" type="veh_passenger" depart="642.64" departLane="best" from="-280730834#4" to="315435017"/>
    <trip id="veh148" type="veh_passenger" depart="647.01" departLane="best" from="1212109889#3" to="-324342195#0"/>
    <trip id="veh149" type="veh_passenger" depart="651.38" departLane="best" from="315273568#5" to="-280730841#0"/>
    <trip id="veh150" type="veh_passenger" depart="655.76" departLane="best" departSpeed="max" from="-1059074841#3" to="280730801#1"/>
    <trip id="veh151" type="veh_passenger" depart="660.13" departLane="best" departSpeed="max" from="-324342196#3" to="324337862#1"/>
    <trip id="veh153" type="veh_passenger" depart="668.87" departLane="best" from="280671586#4" to="1059074841#3"/>
    <trip id="veh154" type="veh_passenger" depart="673.24" departLane="best" departSpeed="max" from="889545837" to="-279226845#3"/>
    <trip id="veh155" type="veh_passenger" depart="677.61" departLane="best" from="-368615154" to="280671203#1"/>
    <trip id="veh156" type="veh_passenger" depart="681.99" departLane="best" from="692492909#1" to="-280671638#0"/>
    <trip id="veh157" type="veh_passenger" depart="686.36" departLane="best" from="555280405" to="-315434974#1"/>
    <trip id="veh158" type="veh_passenger" depart="690.73" departLane="best" from="-280671175#0" to="1211083013#0"/>
    <trip id="veh159" type="veh_passenger" depart="695.10" departLane="best" from="280671207#1" to="-277859486#0"/>
    <trip id="veh160" type="veh_passenger" depart="699.47" departLane="best" departSpeed="max" from="-919775455" to="280671202#3"/>
    <trip id="veh161" type="veh_passenger" depart="703.84" departLane="best" departSpeed="max" from="-315273564" to="280730834#4"/>
    <trip id="veh162" type="veh_passenger" depart="708.22" departLane="best" from="-1057913381#1" to="324342196#3"/>
    <trip id="veh163" type="veh_passenger" depart="712.59" departLane="best" from="279226843#1" to="280730844#1"/>
    <trip id="veh164" type="veh_passenger" depart="716.96" departLane="best" departSpeed="max" from="280730841#0" to="280671633#4"/>
    <trip id="veh165" type="veh_passenger" depart="721.33" departLane="best" departSpeed="max" from="-533079287" to="-279226835#0"/>
    <trip id="veh167" type="veh_passenger" depart="730.08" departLane="best" from="-324340373#4" to="317301266#2"/>
    <trip id="veh168" type="veh_passenger" depart="734.45" departLane="best" departSpeed="max" from="280730810" to="-324340373#2"/>
    <trip id="veh169" type="veh_passenger" depart="738.82" departLane="best" departSpeed="max" from="-324340363" to="-1093005085#0"/>
    <trip id="veh170" type="veh_passenger" depart="743.19" departLane="best" from="-280671203#0" to="1093662897"/>
    <trip id="veh171" type="veh_passenger" depart="747.56" departLane="best" from="-381597731#1" to="280671638#7"/>
    <trip id="veh172" type="veh_passenger" depart="751.93" departLane="best" from="324340371" to="280671585#3"/>
    <trip id="veh173" type="veh_passenger" depart="756.31" departLane="best" from="-324337866#2" to="280671171#8"/>
    <trip id="veh174" type="veh_passenger" depart="760.68" departLane="best" from="-1057913381#0" to="-324337863#1"/>
    <trip id="veh175" type="veh_passenger" depart="765.05" departLane="best" departSpeed="max" from="1093661427" to="280671203#0"/>
    <trip id="veh176" type="veh_passenger" depart="769.42" departLane="best" from="280671593#1" to="1232519870#0"/>
    <trip id="veh177" type="veh_passenger" depart="773.79" departLane="best" from="1211079431#2" to="-280730822"/>
    <trip id="veh178" type="veh_passenger" depart="778.16" departLane="best" from="1213454207#0" to="324342190#0"/>
    <trip id="veh179" type="veh_passenger" depart="782.54" departLane="best" from="315276593#1" to="-280671611#3"/>
    <trip id="veh180" type="veh_passenger" depart="786.91" departLane="best" from="277859480#1" to="-279226832#0"/>
    <trip id="veh181" type="veh_passenger" depart="791.28" departLane="best" from="-280671585#1" to="-473223335"/>
    <trip id="veh182" type="veh_passenger" depart="795.65" departLane="best" from="-315311268#0" to="315273567#1"/>
    <trip id="veh183" type="veh_passenger" depart="800.02" departLane="best" from="280671612#2" to="280730834#7"/>
    <trip id="veh184" type="veh_passenger" depart="804.39" departLane="best" from="280730799#0" to="280671175#3"/>
    <trip id="veh186" type="veh_passenger" depart="813.14" departLane="best" from="315724513" to="-279226835#0"/>
    <trip id="veh187" type="veh_passenger" depart="817.51" departLane="best" departSpeed="max" from="-280730793#1" to="280730802#1"/>
    <trip id="veh189" type="veh_passenger" depart="826.25" departLane="best" from="280671594#1" to="-1058183576#0"/>
    <!-- <trip id="veh190" type="veh_passenger" depart="830.62" departLane="best" departSpeed="max" from="280730848#0" to="315276592#4"/>
    <trip id="veh191" type="veh_passenger" depart="835.00" departLane="best" from="-280671171#7" to="-1211079431#0"/>
    <trip id="veh192" type="veh_passenger" depart="839.37" departLane="best" from="-280671611#1" to="439640046"/>
    <trip id="veh194" type="veh_passenger" depart="848.11" departLane="best" from="-280730904#1" to="317301266#2"/>
    <trip id="veh195" type="veh_passenger" depart="852.48" departLane="best" from="280671611#0" to="918460593"/>
    <trip id="veh197" type="veh_passenger" depart="861.23" departLane="best" departSpeed="max" from="324337874" to="280671214#2"/>
    <trip id="veh198" type="veh_passenger" depart="865.60" departLane="best" departSpeed="max" from="280730810" to="277859464"/>
    <trip id="veh199" type="veh_passenger" depart="869.97" departLane="best" from="315434974#3" to="280671171#8"/>
    <trip id="veh200" type="veh_passenger" depart="874.34" departLane="best" from="324340365#0" to="315273564"/>
    <trip id="veh201" type="veh_passenger" depart="878.71" departLane="best" from="1213454207#5" to="-315311268#0"/>
    <trip id="veh202" type="veh_passenger" depart="883.08" departLane="best" from="280730902#0" to="280671590#1"/>
    <trip id="veh203" type="veh_passenger" depart="887.46" departLane="best" from="280730904#0" to="279226834#1"/>
    <trip id="veh204" type="veh_passenger" depart="891.83" departLane="best" from="280671214#2" to="-315547666#0"/>
    <trip id="veh205" type="veh_passenger" depart="896.20" departLane="best" departSpeed="max" from="-277859456" to="317301266#4"/>
    <trip id="veh206" type="veh_passenger" depart="900.57" departLane="best" from="315434974#4" to="381597731#2"/>
    <trip id="veh207" type="veh_passenger" depart="904.94" departLane="best" from="279226843#3" to="-280671214#3"/>
    <trip id="veh208" type="veh_passenger" depart="909.32" departLane="best" from="280730843#1" to="280730801#5"/>
    <trip id="veh209" type="veh_passenger" depart="913.69" departLane="best" from="-280730801#3" to="-277859486#4"/>
    <trip id="veh210" type="veh_passenger" depart="918.06" departLane="best" from="1058382465" to="280671171#2"/>
    <trip id="veh211" type="veh_passenger" depart="922.43" departLane="best" from="1059074840#1" to="-280730810"/>
    <trip id="veh212" type="veh_passenger" depart="926.80" departLane="best" from="1059074840#6" to="324342191#1"/>
    <trip id="veh213" type="veh_passenger" depart="931.17" departLane="best" from="280671196" to="280730802#1"/>
    <trip id="veh215" type="veh_passenger" depart="939.92" departLane="best" from="-891884490" to="-1058183576#0"/>
    <trip id="veh217" type="veh_passenger" depart="948.66" departLane="best" from="1059074840#5" to="1057913381#0"/>
    <trip id="veh218" type="veh_passenger" depart="953.03" departLane="best" from="-279226845#2" to="280671210#3"/>
    <trip id="veh219" type="veh_passenger" depart="957.40" departLane="best" from="-280730834#2" to="-280730834#0"/>
    <trip id="veh220" type="veh_passenger" depart="961.78" departLane="best" from="1093662896" to="-1093661427"/>
    <trip id="veh221" type="veh_passenger" depart="966.15" departLane="best" from="-368615152#1" to="280730793#0"/>
    <trip id="veh222" type="veh_passenger" depart="970.52" departLane="best" from="1212125301#1" to="-280671608#0"/>
    <trip id="veh223" type="veh_passenger" depart="974.89" departLane="best" from="1212125301#3" to="-280671210#2"/>
    <trip id="veh224" type="veh_passenger" depart="979.26" departLane="best" from="280671211#3" to="1093486055"/>
    <trip id="veh225" type="veh_passenger" depart="983.63" departLane="best" from="1057913383#1" to="280671195"/>
    <trip id="veh226" type="veh_passenger" depart="988.01" departLane="best" departSpeed="max" from="-1066433990" to="280671595"/>
    <trip id="veh227" type="veh_passenger" depart="992.38" departLane="best" from="-280671208#2" to="1213454207#6"/>
    <trip id="veh228" type="veh_passenger" depart="996.75" departLane="best" from="1211083011" to="1058183579"/>
    <trip id="veh229" type="veh_passenger" depart="1001.12" departLane="best" departSpeed="max" from="-280730802#1" to="-399554878"/>
    <trip id="veh230" type="veh_passenger" depart="1005.49" departLane="best" from="280730893#1" to="1058183579"/>
    <trip id="veh231" type="veh_passenger" depart="1009.86" departLane="best" departSpeed="max" from="280730848#0" to="-315547661"/>
    <trip id="veh232" type="veh_passenger" depart="1014.24" departLane="best" departSpeed="max" from="-315273564" to="-279226845#3"/>
    <trip id="veh233" type="veh_passenger" depart="1018.61" departLane="best" from="-1059074841#1" to="279226846#1"/>
    <trip id="veh234" type="veh_passenger" depart="1022.98" departLane="best" from="973910286#1" to="-706951236"/>
    <trip id="veh235" type="veh_passenger" depart="1027.35" departLane="best" from="-280671589#7" to="315276593#9"/>
    <trip id="veh236" type="veh_passenger" depart="1031.72" departLane="best" from="280671589#9" to="315273568#5"/>
    <trip id="veh237" type="veh_passenger" depart="1036.09" departLane="best" departSpeed="max" from="399554878" to="-280730802#0"/>
    <trip id="veh238" type="veh_passenger" depart="1040.47" departLane="best" from="-1059074841#2" to="-280671587#0"/>
    <trip id="veh239" type="veh_passenger" depart="1044.84" departLane="best" from="-280671202#5" to="280671633#3"/>
    <trip id="veh240" type="veh_passenger" depart="1049.21" departLane="best" from="-280671175#0" to="-280730826"/>
    <trip id="veh241" type="veh_passenger" depart="1053.58" departLane="best" from="280730799#1" to="315276592#3"/>
    <trip id="veh242" type="veh_passenger" depart="1057.95" departLane="best" from="280671589#6" to="280671211#2"/>
    <trip id="veh243" type="veh_passenger" depart="1062.32" departLane="best" from="280730847#3" to="-280671203#0"/>
    <trip id="veh244" type="veh_passenger" depart="1066.70" departLane="best" from="315311268#1" to="533079287"/>
    <trip id="veh245" type="veh_passenger" depart="1071.07" departLane="best" from="280671171#8" to="1093383022#1"/>
    <trip id="veh246" type="veh_passenger" depart="1075.44" departLane="best" from="-324340373#1" to="280671638#7"/>
    <trip id="veh247" type="veh_passenger" depart="1079.81" departLane="best" departSpeed="max" from="473223335" to="1059074841#1"/>
    <trip id="veh248" type="veh_passenger" depart="1084.18" departLane="best" departSpeed="max" from="280730808" to="-279226838#0"/>