<?xml version="1.0" encoding="UTF-8"?>

<!-- generated on 2024-09-13 17:49:13 by Eclipse SUMO netedit Version 1.20.0
-->

<additional xmlns:xsi="http://www.w3.org/2001/XMLSchema-instance" xsi:noNamespaceSchemaLocation="http://sumo.dlr.de/xsd/additional_file.xsd">
    <!-- StoppingPlaces -->
    <parkingArea id="pa-1057913381#0" lane="-1057913381#0_0" roadsideCapacity="16" length="5.00"/>
    <parkingArea id="pa-1057913381#1" lane="-1057913381#1_0" roadsideCapacity="18" length="5.00"/>
    <parkingArea id="pa-1057913382#0" lane="-1057913382#0_0" roadsideCapacity="11" length="5.00"/>
    <parkingArea id="pa-1057913382#1" lane="-1057913382#1_0" roadsideCapacity="16" length="5.00"/>
    <parkingArea id="pa-1057937779" lane="-1057937779_0" roadsideCapacity="2" length="5.00"/>
    <parkingArea id="pa-1057937780" lane="-1057937780_0" roadsideCapacity="8" length="5.00"/>
    <parkingArea id="pa-1058183576#0" lane="-1058183576#0_0" roadsideCapacity="6" length="5.00"/>
    <parkingArea id="pa-1058183576#1" lane="-1058183576#1_0" roadsideCapacity="9" length="5.00"/>
    <parkingArea id="pa-1058183576#2" lane="-1058183576#2_0" roadsideCapacity="9" length="5.00"/>
    <parkingArea id="pa-1058183576#3" lane="-1058183576#3_0" roadsideCapacity="8" length="5.00"/>
    <parkingArea id="pa-1058183577" lane="-1058183577_0" roadsideCapacity="12" length="5.00"/>
    <parkingArea id="pa-1058183578#0" lane="-1058183578#0_0" roadsideCapacity="13" length="5.00"/>
    <parkingArea id="pa-1058183578#2" lane="-1058183578#2_0" roadsideCapacity="3" length="5.00"/>
    <parkingArea id="pa-1058183578#3" lane="-1058183578#3_0" roadsideCapacity="17" length="5.00"/>
    <parkingArea id="pa-1058183579" lane="-1058183579_0" roadsideCapacity="21" length="5.00"/>
    <parkingArea id="pa-1058183580" lane="-1058183580_0" roadsideCapacity="6" length="5.00"/>
    <parkingArea id="pa-1058183583#0" lane="-1058183583#0_0" roadsideCapacity="8" length="5.00"/>
    <parkingArea id="pa-1058183583#1" lane="-1058183583#1_0" roadsideCapacity="8" length="5.00"/>
    <parkingArea id="pa-1058382465" lane="-1058382465_0" roadsideCapacity="3" length="5.00"/>
    <parkingArea id="pa-1058382468" lane="-1058382468_0" roadsideCapacity="3" length="5.00"/>
    <parkingArea id="pa-1059074838#1" lane="-1059074838#1_0" roadsideCapacity="13" length="5.00"/>
    <parkingArea id="pa-1059074841#2" lane="-1059074841#2_0" roadsideCapacity="13" length="5.00"/>
    <parkingArea id="pa-1059074841#3" lane="-1059074841#3_0" roadsideCapacity="14" length="5.00"/>
    <parkingArea id="pa-1066433990" lane="-1066433990_0" roadsideCapacity="9" length="5.00"/>
    <parkingArea id="pa-1093004646" lane="-1093004646_0" roadsideCapacity="10" length="5.00"/>
    <parkingArea id="pa-1093005084" lane="-1093005084_0" roadsideCapacity="5" length="5.00"/>
    <parkingArea id="pa-1093005085#0" lane="-1093005085#0_0" roadsideCapacity="15" length="5.00"/>
    <parkingArea id="pa-1093005085#1" lane="-1093005085#1_0" roadsideCapacity="15" length="5.00"/>
    <parkingArea id="pa-1093383022#0" lane="-1093383022#0_0" roadsideCapacity="30" length="5.00"/>
    <parkingArea id="pa-1093383022#1" lane="-1093383022#1_0" roadsideCapacity="6" length="5.00"/>
    <parkingArea id="pa-1093383022#2" lane="-1093383022#2_0" roadsideCapacity="27" length="5.00"/>
    <parkingArea id="pa-1093486055" lane="-1093486055_0" roadsideCapacity="22" length="5.00"/>
    <parkingArea id="pa-1093662894" lane="-1093662894_0" roadsideCapacity="9" length="5.00"/>
    <parkingArea id="pa-1093662895" lane="-1093662895_0" roadsideCapacity="8" length="5.00"/>
    <parkingArea id="pa-1093662896" lane="-1093662896_0" roadsideCapacity="10" length="5.00"/>
    <parkingArea id="pa-1093662897" lane="-1093662897_0" roadsideCapacity="11" length="5.00"/>
    <parkingArea id="pa-1093695450#0" lane="-1093695450#0_0" roadsideCapacity="10" length="5.00"/>
    <parkingArea id="pa-1093695450#1" lane="-1093695450#1_0" roadsideCapacity="9" length="5.00"/>
    <parkingArea id="pa-1209535686" lane="-1209535686_0" roadsideCapacity="2" length="5.00"/>
    <parkingArea id="pa-1211079431#0" lane="-1211079431#0_0" roadsideCapacity="3" length="5.00"/>
    <parkingArea id="pa-1211079431#1" lane="-1211079431#1_0" roadsideCapacity="1" length="5.00"/>
    <parkingArea id="pa-1211079431#2" lane="-1211079431#2_0" roadsideCapacity="12" length="5.00"/>
    <parkingArea id="pa-1211079624" lane="-1211079624_0" roadsideCapacity="1" length="5.00"/>
    <parkingArea id="pa-1211079625" lane="-1211079625_0" roadsideCapacity="3" length="5.00"/>
    <parkingArea id="pa-1211083011" lane="-1211083011_0" roadsideCapacity="8" length="5.00"/>
    <parkingArea id="pa-1211083013#0" lane="-1211083013#0_0" roadsideCapacity="17" length="5.00"/>
    <parkingArea id="pa-1211083013#1" lane="-1211083013#1_0" roadsideCapacity="15" length="5.00"/>
    <parkingArea id="pa-1212119181" lane="-1212119181_0" roadsideCapacity="17" length="5.00"/>
    <parkingArea id="pa-1232520514" lane="-1232520514_0" roadsideCapacity="11" length="5.00"/>
    <parkingArea id="pa-1238067334" lane="-1238067334_0" roadsideCapacity="6" length="5.00"/>
    <parkingArea id="pa-1273555689" lane="-1273555689_0" roadsideCapacity="9" length="5.00"/>
    <parkingArea id="pa-1284148004#0" lane="-1284148004#0_0" roadsideCapacity="7" length="5.00"/>
    <parkingArea id="pa-1284148004#1" lane="-1284148004#1_0" roadsideCapacity="20" length="5.00"/>
    <parkingArea id="pa-1284148005" lane="-1284148005_0" roadsideCapacity="18" length="5.00"/>
    <parkingArea id="pa-1284148006#1" lane="-1284148006#1_0" roadsideCapacity="12" length="5.00"/>
    <parkingArea id="pa-1313489046#0" lane="-1313489046#0_0" roadsideCapacity="48" length="5.00"/>
    <parkingArea id="pa-1313489046#1" lane="-1313489046#1_0" roadsideCapacity="26" length="5.00"/>
    <parkingArea id="pa-277859419#1" lane="-277859419#1_0" roadsideCapacity="19" length="5.00"/>
    <parkingArea id="pa-277859419#2" lane="-277859419#2_0" roadsideCapacity="2" length="5.00"/>
    <parkingArea id="pa-277859456" lane="-277859456_0" roadsideCapacity="22" length="5.00"/>
    <parkingArea id="pa-277859465" lane="-277859465_0" roadsideCapacity="16" length="5.00"/>
    <parkingArea id="pa-277859469" lane="-277859469_0" roadsideCapacity="17" length="5.00"/>
    <parkingArea id="pa-277859480#0" lane="-277859480#0_0" roadsideCapacity="12" length="5.00"/>
    <parkingArea id="pa-277859480#1" lane="-277859480#1_0" roadsideCapacity="11" length="5.00"/>
    <parkingArea id="pa-277859480#2" lane="-277859480#2_0" roadsideCapacity="6" length="5.00"/>
    <parkingArea id="pa-277859486#0" lane="end_0" roadsideCapacity="12" length="5.00"/>
    <parkingArea id="pa-277859486#1" lane="-277859486#1_0" roadsideCapacity="11" length="5.00"/>
    <parkingArea id="pa-277859486#2" lane="-277859486#2_0" roadsideCapacity="11" length="5.00"/>
    <parkingArea id="pa-277859486#3" lane="-277859486#3_0" roadsideCapacity="11" length="5.00"/>
    <parkingArea id="pa-277859486#4" lane="-277859486#4_0" roadsideCapacity="20" length="5.00"/>
    <parkingArea id="pa-279226832#0" lane="-279226832#0_0" roadsideCapacity="13" length="5.00"/>
    <parkingArea id="pa-279226832#1" lane="-279226832#1_0" roadsideCapacity="14" length="5.00"/>
    <parkingArea id="pa-279226832#2" lane="-279226832#2_0" roadsideCapacity="9" length="5.00"/>
    <parkingArea id="pa-279226833#0" lane="-279226833#0_0" roadsideCapacity="8" length="5.00"/>
    <parkingArea id="pa-279226833#1" lane="-279226833#1_0" roadsideCapacity="18" length="5.00"/>
    <parkingArea id="pa-279226833#3" lane="-279226833#3_0" roadsideCapacity="9" length="5.00"/>
    <parkingArea id="pa-279226835#0" lane="-279226835#0_0" roadsideCapacity="4" length="5.00"/>
    <parkingArea id="pa-279226837#0" lane="-279226837#0_0" roadsideCapacity="19" length="5.00"/>
    <parkingArea id="pa-279226838#0" lane="-279226838#0_0" roadsideCapacity="14" length="5.00"/>
    <parkingArea id="pa-279226838#1" lane="-279226838#1_0" roadsideCapacity="12" length="5.00"/>
    <parkingArea id="pa-279226845#1" lane="-279226845#1_0" roadsideCapacity="2" length="5.00"/>
    <parkingArea id="pa-279226845#2" lane="-279226845#2_0" roadsideCapacity="2" length="5.00"/>
    <parkingArea id="pa-279226845#3" lane="-279226845#3_0" roadsideCapacity="4" length="5.00"/>
    <parkingArea id="pa-279226845#4" lane="-279226845#4_0" roadsideCapacity="12" length="5.00"/>
    <parkingArea id="pa-280671171#0" lane="-280671171#0_0" roadsideCapacity="5" length="5.00"/>
    <parkingArea id="pa-280671171#1" lane="-280671171#1_0" roadsideCapacity="8" length="5.00"/>
    <parkingArea id="pa-280671171#2" lane="-280671171#2_0" roadsideCapacity="17" length="5.00"/>
    <parkingArea id="pa-280671171#3" lane="-280671171#3_0" roadsideCapacity="9" length="5.00"/>
    <parkingArea id="pa-280671171#4" lane="-280671171#4_0" roadsideCapacity="19" length="5.00"/>
    <parkingArea id="pa-280671171#5" lane="-280671171#5_0" roadsideCapacity="16" length="5.00"/>
    <parkingArea id="pa-280671171#6" lane="-280671171#6_0" roadsideCapacity="6" length="5.00"/>
    <parkingArea id="pa-280671171#7" lane="-280671171#7_0" roadsideCapacity="5" length="5.00"/>
    <parkingArea id="pa-280671171#8" lane="-280671171#8_0" roadsideCapacity="3" length="5.00"/>
    <parkingArea id="pa-280671172" lane="-280671172_0" roadsideCapacity="4" length="5.00"/>
    <parkingArea id="pa-280671175#0" lane="-280671175#0_0" roadsideCapacity="8" length="5.00"/>
    <parkingArea id="pa-280671175#1" lane="-280671175#1_0" roadsideCapacity="8" length="5.00"/>
    <parkingArea id="pa-280671175#2" lane="-280671175#2_0" roadsideCapacity="8" length="5.00"/>
    <parkingArea id="pa-280671177#0" lane="-280671177#0_0" roadsideCapacity="6" length="5.00"/>
    <parkingArea id="pa-280671177#1" lane="-280671177#1_0" roadsideCapacity="16" length="5.00"/>
    <parkingArea id="pa-280671177#2" lane="-280671177#2_0" roadsideCapacity="5" length="5.00"/>
    <parkingArea id="pa-280671177#3" lane="-280671177#3_0" roadsideCapacity="10" length="5.00"/>
    <parkingArea id="pa-280671177#4" lane="-280671177#4_0" roadsideCapacity="10" length="5.00"/>
    <parkingArea id="pa-280671179" lane="-280671179_0" roadsideCapacity="2" length="5.00"/>
    <parkingArea id="pa-280671180#0" lane="-280671180#0_0" roadsideCapacity="16" length="5.00"/>
    <parkingArea id="pa-280671180#1" lane="-280671180#1_0" roadsideCapacity="2" length="5.00"/>
    <parkingArea id="pa-280671184" lane="-280671184_0" roadsideCapacity="5" length="5.00"/>
    <parkingArea id="pa-280671193#0" lane="-280671193#0_0" roadsideCapacity="10" length="5.00"/>
    <parkingArea id="pa-280671193#1" lane="-280671193#1_0" roadsideCapacity="9" length="5.00"/>
    <parkingArea id="pa-280671196" lane="-280671196_0" roadsideCapacity="4" length="5.00"/>
    <parkingArea id="pa-280671202#0" lane="-280671202#0_0" roadsideCapacity="11" length="5.00"/>
    <parkingArea id="pa-280671202#1" lane="-280671202#1_0" roadsideCapacity="10" length="5.00"/>
    <parkingArea id="pa-280671202#2" lane="-280671202#2_0" roadsideCapacity="8" length="5.00"/>
    <parkingArea id="pa-280671202#3" lane="-280671202#3_0" roadsideCapacity="12" length="5.00"/>
    <parkingArea id="pa-280671202#4" lane="-280671202#4_0" roadsideCapacity="11" length="5.00"/>
    <parkingArea id="pa-280671202#5" lane="-280671202#5_0" roadsideCapacity="18" length="5.00"/>
    <parkingArea id="pa-280671203#0" lane="-280671203#0_0" roadsideCapacity="6" length="5.00"/>
    <parkingArea id="pa-280671203#3" lane="-280671203#3_0" roadsideCapacity="21" length="5.00"/>
    <parkingArea id="pa-280671203#6" lane="-280671203#6_0" roadsideCapacity="19" length="5.00"/>
    <parkingArea id="pa-280671204#0" lane="-280671204#0_0" roadsideCapacity="10" length="5.00"/>
    <parkingArea id="pa-280671204#1" lane="-280671204#1_0" roadsideCapacity="22" length="5.00"/>
    <parkingArea id="pa-280671204#2" lane="-280671204#2_0" roadsideCapacity="20" length="5.00"/>
    <parkingArea id="pa-280671205#0" lane="-280671205#0_0" roadsideCapacity="9" length="5.00"/>
    <parkingArea id="pa-280671205#1" lane="-280671205#1_0" roadsideCapacity="10" length="5.00"/>
    <parkingArea id="pa-280671208#0" lane="-280671208#0_0" roadsideCapacity="17" length="5.00"/>
    <parkingArea id="pa-280671208#1" lane="-280671208#1_0" roadsideCapacity="15" length="5.00"/>
    <parkingArea id="pa-280671208#2" lane="-280671208#2_0" roadsideCapacity="6" length="5.00"/>
    <parkingArea id="pa-280671208#3" lane="-280671208#3_0" roadsideCapacity="5" length="5.00"/>
    <parkingArea id="pa-280671208#4" lane="-280671208#4_0" roadsideCapacity="3" length="5.00"/>
    <parkingArea id="pa-280671210#0" lane="-280671210#0_0" roadsideCapacity="9" length="5.00"/>
    <parkingArea id="pa-280671210#1" lane="-280671210#1_0" roadsideCapacity="9" length="5.00"/>
    <parkingArea id="pa-280671210#2" lane="-280671210#2_0" roadsideCapacity="9" length="5.00"/>
    <parkingArea id="pa-280671210#3" lane="-280671210#3_0" roadsideCapacity="6" length="5.00"/>
    <parkingArea id="pa-280671210#4" lane="-280671210#4_0" roadsideCapacity="2" length="5.00"/>
    <parkingArea id="pa-280671211#0" lane="-280671211#0_0" roadsideCapacity="9" length="5.00"/>
    <parkingArea id="pa-280671211#1" lane="-280671211#1_0" roadsideCapacity="9" length="5.00"/>
    <parkingArea id="pa-280671211#2" lane="-280671211#2_0" roadsideCapacity="9" length="5.00"/>
    <parkingArea id="pa-280671211#3" lane="-280671211#3_0" roadsideCapacity="10" length="5.00"/>
    <parkingArea id="pa-280671211#4" lane="-280671211#4_0" roadsideCapacity="9" length="5.00"/>
    <parkingArea id="pa-280671211#5" lane="-280671211#5_0" roadsideCapacity="12" length="5.00"/>
    <parkingArea id="pa-280671214#0" lane="-280671214#0_0" roadsideCapacity="13" length="5.00"/>
    <parkingArea id="pa-280671214#1" lane="-280671214#1_0" roadsideCapacity="5" length="5.00"/>
    <parkingArea id="pa-280671214#2" lane="-280671214#2_0" roadsideCapacity="6" length="5.00"/>
    <parkingArea id="pa-280671214#3" lane="-280671214#3_0" roadsideCapacity="17" length="5.00"/>
    <parkingArea id="pa-280671585#0" lane="-280671585#0_0" roadsideCapacity="7" length="5.00"/>
    <parkingArea id="pa-280671585#1" lane="-280671585#1_0" roadsideCapacity="9" length="5.00"/>
    <parkingArea id="pa-280671585#2" lane="-280671585#2_0" roadsideCapacity="10" length="5.00"/>
    <parkingArea id="pa-280671585#3" lane="-280671585#3_0" roadsideCapacity="9" length="5.00"/>
    <parkingArea id="pa-280671585#4" lane="-280671585#4_0" roadsideCapacity="9" length="5.00"/>
    <parkingArea id="pa-280671585#5" lane="-280671585#5_0" roadsideCapacity="9" length="5.00"/>
    <parkingArea id="pa-280671585#6" lane="-280671585#6_0" roadsideCapacity="8" length="5.00"/>
    <parkingArea id="pa-280671586#0" lane="-280671586#0_0" roadsideCapacity="9" length="5.00"/>
    <parkingArea id="pa-280671586#1" lane="-280671586#1_0" roadsideCapacity="10" length="5.00"/>
    <parkingArea id="pa-280671586#2" lane="-280671586#2_0" roadsideCapacity="9" length="5.00"/>
    <parkingArea id="pa-280671586#3" lane="-280671586#3_0" roadsideCapacity="9" length="5.00"/>
    <parkingArea id="pa-280671586#4" lane="-280671586#4_0" roadsideCapacity="7" length="5.00"/>
    <parkingArea id="pa-280671587#0" lane="-280671587#0_0" roadsideCapacity="10" length="5.00"/>
    <parkingArea id="pa-280671587#1" lane="-280671587#1_0" roadsideCapacity="21" length="5.00"/>
    <parkingArea id="pa-280671587#2" lane="-280671587#2_0" roadsideCapacity="19" length="5.00"/>
    <parkingArea id="pa-280671589#0" lane="-280671589#0_0" roadsideCapacity="8" length="5.00"/>
    <parkingArea id="pa-280671589#1" lane="-280671589#1_0" roadsideCapacity="16" length="5.00"/>
    <parkingArea id="pa-280671589#2" lane="-280671589#2_0" roadsideCapacity="8" length="5.00"/>
    <parkingArea id="pa-280671589#3" lane="-280671589#3_0" roadsideCapacity="9" length="5.00"/>
    <parkingArea id="pa-280671589#5" lane="-280671589#5_0" roadsideCapacity="9" length="5.00"/>
    <parkingArea id="pa-280671589#6" lane="-280671589#6_0" roadsideCapacity="7" length="5.00"/>
    <parkingArea id="pa-280671589#8" lane="-280671589#8_0" roadsideCapacity="2" length="5.00"/>
    <parkingArea id="pa-280671589#9" lane="-280671589#9_0" roadsideCapacity="15" length="5.00"/>
    <parkingArea id="pa-280671595" lane="-280671595_0" roadsideCapacity="22" length="5.00"/>
    <parkingArea id="pa-280671598" lane="-280671598_0" roadsideCapacity="17" length="5.00"/>
    <parkingArea id="pa-280671608#0" lane="-280671608#0_0" roadsideCapacity="15" length="5.00"/>
    <parkingArea id="pa-280671608#1" lane="-280671608#1_0" roadsideCapacity="11" length="5.00"/>
    <parkingArea id="pa-280671611#0" lane="-280671611#0_0" roadsideCapacity="5" length="5.00"/>
    <parkingArea id="pa-280671611#1" lane="-280671611#1_0" roadsideCapacity="14" length="5.00"/>
    <parkingArea id="pa-280671611#2" lane="-280671611#2_0" roadsideCapacity="11" length="5.00"/>
    <parkingArea id="pa-280671611#3" lane="-280671611#3_0" roadsideCapacity="20" length="5.00"/>
    <parkingArea id="pa-280671620#0" lane="-280671620#0_0" roadsideCapacity="11" length="5.00"/>
    <parkingArea id="pa-280671620#1" lane="-280671620#1_0" roadsideCapacity="10" length="5.00"/>
    <parkingArea id="pa-280671620#2" lane="-280671620#2_0" roadsideCapacity="9" length="5.00"/>
    <parkingArea id="pa-280671620#3" lane="-280671620#3_0" roadsideCapacity="20" length="5.00"/>
    <parkingArea id="pa-280671628#0" lane="-280671628#0_0" roadsideCapacity="19" length="5.00"/>
    <parkingArea id="pa-280671628#1" lane="-280671628#1_0" roadsideCapacity="19" length="5.00"/>
    <parkingArea id="pa-280671632#0" lane="-280671632#0_0" roadsideCapacity="20" length="5.00"/>
    <parkingArea id="pa-280671632#1" lane="-280671632#1_0" roadsideCapacity="8" length="5.00"/>
    <parkingArea id="pa-280671632#2" lane="-280671632#2_0" roadsideCapacity="8" length="5.00"/>
    <parkingArea id="pa-280671638#0" lane="-280671638#0_0" roadsideCapacity="4" length="5.00"/>
    <parkingArea id="pa-280671638#1" lane="-280671638#1_0" roadsideCapacity="11" length="5.00"/>
    <parkingArea id="pa-280671638#2" lane="-280671638#2_0" roadsideCapacity="5" length="5.00"/>
    <parkingArea id="pa-280671638#3" lane="-280671638#3_0" roadsideCapacity="10" length="5.00"/>
    <parkingArea id="pa-280671638#4" lane="-280671638#4_0" roadsideCapacity="11" length="5.00"/>
    <parkingArea id="pa-280671638#6" lane="-280671638#6_0" roadsideCapacity="9" length="5.00"/>
    <parkingArea id="pa-280671638#7" lane="-280671638#7_0" roadsideCapacity="8" length="5.00"/>
    <parkingArea id="pa-280671638#9" lane="-280671638#9_0" roadsideCapacity="9" length="5.00"/>
    <parkingArea id="pa-280730793#0" lane="-280730793#0_0" roadsideCapacity="31" length="5.00"/>
    <parkingArea id="pa-280730793#1" lane="-280730793#1_0" roadsideCapacity="2" length="5.00"/>
    <parkingArea id="pa-280730799#0" lane="-280730799#0_0" roadsideCapacity="8" length="5.00"/>
    <parkingArea id="pa-280730799#1" lane="-280730799#1_0" roadsideCapacity="7" length="5.00"/>
    <parkingArea id="pa-280730799#2" lane="-280730799#2_0" roadsideCapacity="7" length="5.00"/>
    <parkingArea id="pa-280730799#3" lane="-280730799#3_0" roadsideCapacity="7" length="5.00"/>
    <parkingArea id="pa-280730799#4" lane="-280730799#4_0" roadsideCapacity="8" length="5.00"/>
    <parkingArea id="pa-280730799#5" lane="-280730799#5_0" roadsideCapacity="26" length="5.00"/>
    <parkingArea id="pa-280730801#0" lane="-280730801#0_0" roadsideCapacity="14" length="5.00"/>
    <parkingArea id="pa-280730801#1" lane="-280730801#1_0" roadsideCapacity="17" length="5.00"/>
    <parkingArea id="pa-280730801#2" lane="-280730801#2_0" roadsideCapacity="3" length="5.00"/>
    <parkingArea id="pa-280730801#3" lane="-280730801#3_0" roadsideCapacity="8" length="5.00"/>
    <parkingArea id="pa-280730801#4" lane="-280730801#4_0" roadsideCapacity="4" length="5.00"/>
    <parkingArea id="pa-280730801#5" lane="-280730801#5_0" roadsideCapacity="1" length="5.00"/>
    <parkingArea id="pa-280730802#0" lane="-280730802#0_0" roadsideCapacity="5" length="5.00"/>
    <parkingArea id="pa-280730802#1" lane="-280730802#1_0" roadsideCapacity="20" length="5.00"/>
    <parkingArea id="pa-280730808" lane="-280730808_0" roadsideCapacity="20" length="5.00"/>
    <parkingArea id="pa-280730810" lane="-280730810_0" roadsideCapacity="18" length="5.00"/>
    <parkingArea id="pa-280730813" lane="-280730813_0" roadsideCapacity="22" length="5.00"/>
    <parkingArea id="pa-280730822" lane="-280730822_0" roadsideCapacity="16" length="5.00"/>
    <parkingArea id="pa-280730823" lane="-280730823_0" roadsideCapacity="18" length="5.00"/>
    <parkingArea id="pa-280730826" lane="-280730826_0" roadsideCapacity="15" length="5.00"/>
    <parkingArea id="pa-280730834#0" lane="-280730834#0_0" roadsideCapacity="31" length="5.00"/>
    <parkingArea id="pa-280730834#1" lane="-280730834#1_0" roadsideCapacity="2" length="5.00"/>
    <parkingArea id="pa-280730834#2" lane="-280730834#2_0" roadsideCapacity="15" length="5.00"/>
    <parkingArea id="pa-280730834#3" lane="-280730834#3_0" roadsideCapacity="7" length="5.00"/>
    <parkingArea id="pa-280730834#4" lane="-280730834#4_0" roadsideCapacity="1" length="5.00"/>
    <parkingArea id="pa-280730834#5" lane="-280730834#5_0" roadsideCapacity="6" length="5.00"/>
    <parkingArea id="pa-280730834#7" lane="-280730834#7_0" roadsideCapacity="8" length="5.00"/>
    <parkingArea id="pa-280730841#0" lane="-280730841#0_0" roadsideCapacity="15" length="5.00"/>
    <parkingArea id="pa-280730841#1" lane="-280730841#1_0" roadsideCapacity="4" length="5.00"/>
    <parkingArea id="pa-280730843#0" lane="-280730843#0_0" roadsideCapacity="20" length="5.00"/>
    <parkingArea id="pa-280730843#1" lane="-280730843#1_0" roadsideCapacity="14" length="5.00"/>
    <parkingArea id="pa-280730847#3" lane="-280730847#3_0" roadsideCapacity="14" length="5.00"/>
    <parkingArea id="pa-280730847#4" lane="-280730847#4_0" roadsideCapacity="16" length="5.00"/>
    <parkingArea id="pa-280730848#0" lane="-280730848#0_0" roadsideCapacity="4" length="5.00"/>
    <parkingArea id="pa-280730848#1" lane="-280730848#1_0" roadsideCapacity="17" length="5.00"/>
    <parkingArea id="pa-280730853#3" lane="-280730853#3_0" roadsideCapacity="16" length="5.00"/>
    <parkingArea id="pa-280730871" lane="-280730871_0" roadsideCapacity="21" length="5.00"/>
    <parkingArea id="pa-280730878" lane="-280730878_0" roadsideCapacity="11" length="5.00"/>
    <parkingArea id="pa-280730883" lane="-280730883_0" roadsideCapacity="11" length="5.00"/>
    <parkingArea id="pa-280730893#0" lane="-280730893#0_0" roadsideCapacity="7" length="5.00"/>
    <parkingArea id="pa-280730893#1" lane="-280730893#1_0" roadsideCapacity="7" length="5.00"/>
    <parkingArea id="pa-280730893#2" lane="-280730893#2_0" roadsideCapacity="6" length="5.00"/>
    <parkingArea id="pa-280730900#0" lane="-280730900#0_0" roadsideCapacity="28" length="5.00"/>
    <parkingArea id="pa-280730900#1" lane="-280730900#1_0" roadsideCapacity="7" length="5.00"/>
    <parkingArea id="pa-280730902#3" lane="-280730902#3_0" roadsideCapacity="25" length="5.00"/>
    <parkingArea id="pa-280730904#0" lane="-280730904#0_0" roadsideCapacity="13" length="5.00"/>
    <parkingArea id="pa-280730904#1" lane="-280730904#1_0" roadsideCapacity="10" length="5.00"/>
    <parkingArea id="pa-280730908" lane="-280730908_0" roadsideCapacity="5" length="5.00"/>
    <parkingArea id="pa-296770406" lane="-296770406_0" roadsideCapacity="37" length="5.00"/>
    <parkingArea id="pa-296770409" lane="-296770409_0" roadsideCapacity="39" length="5.00"/>
    <parkingArea id="pa-315273564" lane="-315273564_0" roadsideCapacity="29" length="5.00"/>
    <parkingArea id="pa-315273565#0" lane="-315273565#0_0" roadsideCapacity="14" length="5.00"/>
    <parkingArea id="pa-315273565#1" lane="-315273565#1_0" roadsideCapacity="7" length="5.00"/>
    <parkingArea id="pa-315273566#0" lane="-315273566#0_0" roadsideCapacity="19" length="5.00"/>
    <parkingArea id="pa-315273566#1" lane="-315273566#1_0" roadsideCapacity="5" length="5.00"/>
    <parkingArea id="pa-315276597#0" lane="-315276597#0_0" roadsideCapacity="12" length="5.00"/>
    <parkingArea id="pa-315276597#1" lane="-315276597#1_0" roadsideCapacity="11" length="5.00"/>
    <parkingArea id="pa-315276597#2" lane="-315276597#2_0" roadsideCapacity="9" length="5.00"/>
    <parkingArea id="pa-315311268#0" lane="-315311268#0_0" roadsideCapacity="20" length="5.00"/>
    <parkingArea id="pa-315311268#1" lane="-315311268#1_0" roadsideCapacity="6" length="5.00"/>
    <parkingArea id="pa-315311292#0" lane="-315311292#0_0" roadsideCapacity="15" length="5.00"/>
    <parkingArea id="pa-315311292#1" lane="-315311292#1_0" roadsideCapacity="1" length="5.00"/>
    <parkingArea id="pa-315434974#1" lane="-315434974#1_0" roadsideCapacity="7" length="5.00"/>
    <parkingArea id="pa-315434974#2" lane="-315434974#2_0" roadsideCapacity="13" length="5.00"/>
    <parkingArea id="pa-315434974#3" lane="-315434974#3_0" roadsideCapacity="3" length="5.00"/>
    <parkingArea id="pa-315434974#4" lane="-315434974#4_0" roadsideCapacity="10" length="5.00"/>
    <parkingArea id="pa-315434976" lane="-315434976_0" roadsideCapacity="10" length="5.00"/>
    <parkingArea id="pa-315434977#2" lane="-315434977#2_0" roadsideCapacity="20" length="5.00"/>
    <parkingArea id="pa-315439122" lane="-315439122_0" roadsideCapacity="19" length="5.00"/>
    <parkingArea id="pa-315499519" lane="-315499519_0" roadsideCapacity="29" length="5.00"/>
    <parkingArea id="pa-315547655" lane="-315547655_0" roadsideCapacity="9" length="5.00"/>
    <parkingArea id="pa-315547661" lane="-315547661_0" roadsideCapacity="32" length="5.00"/>
    <parkingArea id="pa-315547662" lane="-315547662_0" roadsideCapacity="14" length="5.00"/>
    <parkingArea id="pa-315547664" lane="-315547664_0" roadsideCapacity="28" length="5.00"/>
    <parkingArea id="pa-315547666#0" lane="-315547666#0_0" roadsideCapacity="7" length="5.00"/>
    <parkingArea id="pa-315547666#1" lane="-315547666#1_0" roadsideCapacity="10" length="5.00"/>
    <parkingArea id="pa-315724514" lane="-315724514_0" roadsideCapacity="7" length="5.00"/>
    <parkingArea id="pa-315728661" lane="-315728661_0" roadsideCapacity="18" length="5.00"/>
    <parkingArea id="pa-316392152" lane="-316392152_0" roadsideCapacity="13" length="5.00"/>
    <parkingArea id="pa-317301261" lane="-317301261_0" roadsideCapacity="12" length="5.00"/>
    <parkingArea id="pa-317301266#1" lane="-317301266#1_0" roadsideCapacity="5" length="5.00"/>
    <parkingArea id="pa-317301266#2" lane="-317301266#2_0" roadsideCapacity="8" length="5.00"/>
    <parkingArea id="pa-317301266#3" lane="-317301266#3_0" roadsideCapacity="11" length="5.00"/>
    <parkingArea id="pa-317301266#4" lane="-317301266#4_0" roadsideCapacity="13" length="5.00"/>
    <parkingArea id="pa-324337863#1" lane="-324337863#1_0" roadsideCapacity="6" length="5.00"/>
    <parkingArea id="pa-324337866#0" lane="-324337866#0_0" roadsideCapacity="34" length="5.00"/>
    <parkingArea id="pa-324337866#1" lane="-324337866#1_0" roadsideCapacity="11" length="5.00"/>
    <parkingArea id="pa-324337866#2" lane="-324337866#2_0" roadsideCapacity="16" length="5.00"/>
    <parkingArea id="pa-324337869#0" lane="-324337869#0_0" roadsideCapacity="12" length="5.00"/>
    <parkingArea id="pa-324337869#1" lane="-324337869#1_0" roadsideCapacity="25" length="5.00"/>
    <parkingArea id="pa-324337869#2" lane="-324337869#2_0" roadsideCapacity="8" length="5.00"/>
    <parkingArea id="pa-324337869#4" lane="-324337869#4_0" roadsideCapacity="6" length="5.00"/>
    <parkingArea id="pa-324337874" lane="-324337874_0" roadsideCapacity="12" length="5.00"/>
    <parkingArea id="pa-324340363" lane="-324340363_0" roadsideCapacity="23" length="5.00"/>
    <parkingArea id="pa-324340373#1" lane="-324340373#1_0" roadsideCapacity="4" length="5.00"/>
    <parkingArea id="pa-324340373#2" lane="-324340373#2_0" roadsideCapacity="2" length="5.00"/>
    <parkingArea id="pa-324340373#3" lane="-324340373#3_0" roadsideCapacity="3" length="5.00"/>
    <parkingArea id="pa-324340373#4" lane="-324340373#4_0" roadsideCapacity="18" length="5.00"/>
    <parkingArea id="pa-324342194#0" lane="-324342194#0_0" roadsideCapacity="10" length="5.00"/>
    <parkingArea id="pa-324342194#1" lane="-324342194#1_0" roadsideCapacity="10" length="5.00"/>
    <parkingArea id="pa-324342194#3" lane="-324342194#3_0" roadsideCapacity="5" length="5.00"/>
    <parkingArea id="pa-324342195#0" lane="-324342195#0_0" roadsideCapacity="15" length="5.00"/>
    <parkingArea id="pa-324342195#1" lane="-324342195#1_0" roadsideCapacity="20" length="5.00"/>
    <parkingArea id="pa-324342196#0" lane="-324342196#0_0" roadsideCapacity="12" length="5.00"/>
    <parkingArea id="pa-324342196#1" lane="-324342196#1_0" roadsideCapacity="1" length="5.00"/>
    <parkingArea id="pa-324342196#2" lane="-324342196#2_0" roadsideCapacity="20" length="5.00"/>
    <parkingArea id="pa-324342196#3" lane="-324342196#3_0" roadsideCapacity="17" length="5.00"/>
    <parkingArea id="pa-324342198" lane="-324342198_0" roadsideCapacity="10" length="5.00"/>
    <parkingArea id="pa-324342199#0" lane="-324342199#0_0" roadsideCapacity="15" length="5.00"/>
    <parkingArea id="pa-324342199#1" lane="-324342199#1_0" roadsideCapacity="11" length="5.00"/>
    <parkingArea id="pa-324342201#0" lane="-324342201#0_0" roadsideCapacity="10" length="5.00"/>
    <parkingArea id="pa-324342201#1" lane="-324342201#1_0" roadsideCapacity="3" length="5.00"/>
    <parkingArea id="pa-324342202" lane="-324342202_0" roadsideCapacity="31" length="5.00"/>
    <parkingArea id="pa-368615152#0" lane="-368615152#0_0" roadsideCapacity="1" length="5.00"/>
    <parkingArea id="pa-368615152#1" lane="-368615152#1_0" roadsideCapacity="10" length="5.00"/>
    <parkingArea id="pa-368615153" lane="-368615153_0" roadsideCapacity="16" length="5.00"/>