<?xml version="1.0" encoding="UTF-8"?>

<!-- generated on 2024-10-04 17:10:02 by Eclipse SUMO duarouter Version 1.20.0
<configuration xmlns:xsi="http://www.w3.org/2001/XMLSchema-instance" xsi:noNamespaceSchemaLocation="http://sumo.dlr.de/xsd/duarouterConfiguration.xsd">

    <input>
        <net-file value="020/../../osm.net.xml"/>
        <route-files value="020/../019/osm.passenger_019.rou.alt.xml"/>
        <weight-files value="020/../019/dump_900.xml"/>
    </input>

    <output>
        <output-file value="020/osm.passenger_020.rou.xml"/>
        <exit-times value="False"/>
    </output>

    <processing>
        <max-alternatives value="5"/>
        <with-taz value="False"/>
        <routing-algorithm value="dijkstra"/>
        <weights.expand value="true"/>
        <gawron.beta value="0.9"/>
        <gawron.a value="0.5"/>
        <keep-all-routes value="False"/>
        <logit.beta value="0.15"/>
        <logit.gamma value="1.0"/>
    </processing>

    <time>
        <begin value="0"/>
    </time>

    <report>
        <verbose value="False"/>
        <no-warnings value="False"/>
        <ignore-errors value="False"/>
        <no-step-log value="true"/>
    </report>

    <random_number>
        <random value="False"/>
    </random_number>

</configuration>
-->

<routes xmlns:xsi="http://www.w3.org/2001/XMLSchema-instance" xsi:noNamespaceSchemaLocation="http://sumo.dlr.de/xsd/routes_file.xsd">
    <vType id="veh_passenger" maxSpeed="100.00" desiredMaxSpeed="50.00" speedFactor="2.00" vClass="passenger"/>
    <vehicle id="veh0" type="veh_passenger" depart="0.00" departLane="best">
        <route edges="70200194#1 -70056694#1 -70056694#0 -664980454 77712876#4 539414316 70080980#2 70080980#3 70080980#4 70080980#5 70080980#6 70080979#4 70080979#5 70080979#6 70080979#7 77790788#0 77790788#1 77790788#2 77790788#3 77790788#4 -85631072#4 -85631072#3 -147412866#0"/>
    </vehicle>
    <vehicle id="veh1" type="veh_passenger" depart="1.82" departLane="best" departSpeed="max">
        <route edges="-85701987#4 -85701987#3 -85701987#2 -85701987#1 -85701987#0 -691704911 -1075116935#0 -78684176#3 -78684176#2 -78684176#1 -78684176#0 -147419852#0 85701991 85701990#0 76845626#1 -77948714#2"/>
    </vehicle>
    <vehicle id="veh2" type="veh_passenger" depart="3.65" departLane="best">
        <route edges="75416306#10 563505741#0 563505741#1 563505740#0 563505740#1 563505740#2 75413341#0 75413341#1 75413341#2 75413341#3 564511814 75413342 -72644721#7 -72644044#6 75259400#1 75259400#2 75259400#3 72641085#2"/>
    </vehicle>
    <vehicle id="veh3" type="veh_passenger" depart="5.47" departLane="best">
        <route edges="78684176#0 -78684173 890032153 76845626#0 85701990#1 430268897 183876535#5 183876535#7 70200195#2 70200195#3 70200195#4 70200195#5 70200195#6 564511809#0 564511809#1 890586227#0 890586227#1 -147379108#4 70200198#0 70200198#2 -563505737#2"/>
    </vehicle>
    <vehicle id="veh4" type="veh_passenger" depart="7.30" departLane="best">
        <route edges="237036477#6 237036477#7 237036477#8 237036477#10 237036477#11 237036477#12 562096885 75679256#5 75679256#6 75679256#7 75679256#8 75679256#9 75679256#10 75679244 447326318 72508818 -447326319#4 -447326319#3 -447326319#2 -447326319#1 -447326319#0 183876531#0 183876531#1 183876531#2 183876531#3 183876531#4 183876531#6 183876531#7 75679292#2 890559265#0 890559265#1 890559265#2 890559265#3 75679284#0 75679284#1 693637327#1 693637327#2 889999537#0 890556454 179051712#0 179051712#1 179051712#2 179051712#3 179051712#4 77712876#0 77712876#1 77712876#2 77712876#3 77712876#4 539414316 70080980#2 70080980#3 70080980#4 70080980#5 70080980#6 70080979#4 85631070 563505765#0 563505765#1 563505765#2 88141324#0 -85631065#5 -85631065#4 -85631065#3 -85631065#2 -147412875#1"/>
    </vehicle>
    <vehicle id="veh5" type="veh_passenger" depart="9.12" departLane="best">
        <route edges="-147419852#2 -147419852#1 -147419852#0 -69416763#1 76845626#0 85701990#1 430268897 183876535#5 183876535#7 70200195#2 -77680543#4 -77680543#3 -77680543#2 -77680543#1 -77680543#0 419238469#0 419238469#1 -76845636#1 -76845636#0"/>
    </vehicle>
    <vehicle id="veh6" type="veh_passenger" depart="10.95" departLane="best">
        <route edges="70200195#9 70200195#10 70200195#11 70200195#12 70200195#13 70200195#14 70200195#15 70200195#16 70200195#17 70200195#18 70200195#19 70200195#20 70200195#21 70200195#22 70200195#23 89478571#3 89478571#4 89478571#5 89478571#6 89478571#7 269853395#0 269853395#1 269853395#2 77670431#2 77670431#3 77670431#4 72508815#14 72508815#15 72508815#16 72508815#17 72508815#18 72508815#19 72508816#1 72508816#2 72508816#4 72508816#5 72508816#6 563505769#1 563505769#2 563505769#3 563505769#4 563505769#5 563505769#6"/>
    </vehicle>
    <vehicle id="veh7" type="veh_passenger" depart="12.77" departLane="best">
        <route edges="FEEC 693637406#10 693637406#11 693637406#12 693637406#13 693637406#14 693637406#15 693637406#16 906065938 1013410331 535719980 75679256#0 75679256#1 75679256#2 75679256#3 75679256#4 75679256#5 75679256#6 75679256#7 75679256#8 75679256#9 75679256#10 906049246 IC"/>
    </vehicle>
    <vehicle id="veh8" type="veh_passenger" depart="14.59" departLane="best">
        <route edges="77674945#7 77674945#8 77674950#1 77674950#2 77674950#4 77674950#5 77674950#6 77674950#7 77674950#8 77674950#9 447326496#0 447326496#1 447326496#2 447326496#3 447326496#4 447326496#5 89478572#7 89478572#8 89478572#9 889999539 89478572#0 89478572#1 89478572#2 89478572#3 75416306#0 75416306#1 75416306#2 75416306#3 75416306#4 75416306#5 75416306#6 75416306#7 75416306#8 -564511813#0 -75259402#2 -75259402#1 -75259402#0 -691836138#1 -691836138#0 70200195#6 564511809#0 564511809#1 70056689#16 70056689#17 70056689#18 70056689#19 890063336#2 890063336#3 890063336#4 890063336#5 85701995#1 -85701996#0 78684178#2 78684178#3 1075116935#0"/>
    </vehicle>
    <vehicle id="veh9" type="veh_passenger" depart="16.42" departLane="best">
        <route edges="77674942#3 72508573#10 72508573#11 72508573#12 72508573#13 693637397#0 693637397#1 89478572#9 889999539 89478572#0 89478572#1 -70080981#3 -70080981#2 -75259400#7 75259400#7"/>
    </vehicle>
    <vehicle id="veh10" type="veh_passenger" depart="18.24" departLane="best">
        <route edges="1054468192#1 1054468192#2 1054468192#3 889993133#0 889993133#1 1203381725 -1046248579#2 -1046248579#1 -1046248579#0 535556338#0 535556338#1 535556338#2 535556337#2 535556337#3 535556337#4 329703620#0 329703620#1 329703620#2 329703620#3 329703620#4 329703620#5 329703620#7 1013410330 1013410329 72508573#0 72508573#1 72508573#2 72508573#3 72508573#4 72508573#5 72508573#6 72508573#10 72508573#11 72508573#12 72508573#13 693637397#0 693637397#1 89478572#9 889999539 89478572#0 89478572#1 89478572#2 72644721#0 72644721#1 72644721#2 72644721#3 72644721#4 72644721#5 72644721#6 -72644044#6 -72644044#5 -72644044#4"/>
    </vehicle>
    <vehicle id="veh11" type="veh_passenger" depart="20.07" departLane="best">
        <route edges="539691353#8 70200195#2 70200195#3 70200195#4 70200195#5 70200195#6 70200195#7 70200195#8 70200195#9 70200195#10 70200195#11 70200195#12 70200195#13 70200195#14 70200195#15 70200195#16 70200195#17 70200195#18 70200195#19 70200195#20 70200195#21 70080981#0 70080981#1 70080981#2 70080981#3 89478572#2 89478572#3 89478572#4 89478572#5 72644725#0 72644725#1 72644725#2 72644725#3 72644725#4 72644725#5 447326043 147379116#0 147379116#2 147379116#3 147379116#4"/>
    </vehicle>
    <vehicle id="veh13" type="veh_passenger" depart="23.71" departLane="best">
        <route edges="77790788#1 77790788#2 77790788#3 77790788#4 85631072#5 69830501#2 69830501#3 69830501#4 69830501#5 69830501#6 70080979#10 70080979#11 70080979#12 70080979#1 70080979#2 77781343#0 77781343#1 77781343#2 77781343#3 77781343#4 689691698#7 70056694#0 70056694#1 -70200194#1 -70200194#0 -147379112#0 -70200198#6 -70200198#5 -70200198#4 -70200198#3 -70200198#2 -70200198#0 147379108#4 890586228 70056689#16"/>
    </vehicle>
    <vehicle id="veh14" type="veh_passenger" depart="25.54" departLane="best">
        <route edges="77674945#2 77674945#3 77674945#4 -77674920#2 -77674920#1 -77674920#0 77674918#4 77674915#1 537023654 -889486571#1 77674942#0 77674942#1 77674942#2 77674942#3 72508573#10 72508573#11 72508573#12 72508573#13 693637397#0 693637397#1 89478572#9 889999539 89478572#0 89478572#1 89478572#2 89478572#3 75416306#0 75416306#1 75416306#2 75416306#3 75416306#4 75416306#5"/>
    </vehicle>
    <vehicle id="veh15" type="veh_passenger" depart="27.36" departLane="best">
        <route edges="563505751#2 147419826#2 147419826#4 77948714#0 77948714#1 89530503#2 89530503#3 89530503#4 -220996673 -69416763#1 -69416763#0 220996671 1075116935#0 911130020 856607131#2 856607131#3 856607131#4 890681695#1"/>
    </vehicle>
    <vehicle id="veh16" type="veh_passenger" depart="29.19" departLane="best" departSpeed="max">
        <route edges="147412875#0 85631072#2 85631072#3 85631072#4 85631072#5 69830501#2 69830501#3 69830501#4 69830501#5 69830501#6 70080979#10 70080979#11 70080979#12 70080979#1 70080979#2 77781343#0 77781343#1 77781343#2 77781343#3 77781343#4 77712876#7 77712876#8 77712876#9 689691698#1 69012634#0 69012634#1 69012634#2 69012634#3 69012634#4 -69416764#1 -69416764#0 533682528#1 533682528#2 533682528#3 533682528#4 533682528#5 533682528#6 533682528#7 183876535#0 183876535#3 -85701998 627798939#3"/>
    </vehicle>
    <vehicle id="veh17" type="veh_passenger" depart="31.01" departLane="best">
        <route edges="77874668#3 77874668#4 77881557#3 77881557#4 77881557#5 77881557#6 77881557#7 77881557#8 77881557#9 75413340#0 75413340#1 447326496#0 447326496#1 447326496#2 447326496#3 447326496#4 447326496#5 89478572#7 89478572#8 89478572#9 889999539 89478572#0 89478572#1 89478572#2 89478572#3 75416306#0 75416306#1 75416306#2 75416306#3 75416306#4 75416306#5 75416306#6 75416306#7 75416306#8 75416306#10 563505741#0 563505741#1 -890747060#1 -890747060#0 -76845636#1 77676169#0 77676169#1 69322779#6"/>
    </vehicle>
    <vehicle id="veh18" type="veh_passenger" depart="32.84" departLane="best" departSpeed="max">
        <route edges="-77783507 689691698#1 69012634#0 69012634#1 69012634#2 69012634#3 69012634#4 -69416764#1 -69416764#0 533682528#1 533682528#2 533682528#3 533682528#4 533682528#5 533682528#6 533682528#7 183876535#0 183876535#3 183876535#4 -430268897 -85701990#1 -85701990#0 563505742 -89530503#2 -77948714#1 -77948714#0 147419826#5 -89430987#1"/>
    </vehicle>
    <vehicle id="veh19" type="veh_passenger" depart="34.66" departLane="best">
        <route edges="-537232376 260761733#2 260761733#3 260761733#4 260761733#5 1013410331 535719980 1013410330 1013410329 72508573#0 72508573#1 72508573#2 72508573#3 72508573#4 72508573#5 72508573#6 72508573#10 72508573#11 72508573#12 72508573#13 693637397#0 693637397#1 89478572#9 889999539 77709899#0 77709899#1 77709899#2 77709899#3 77709899#4 89478571#5 89478571#6 89478571#7 89478571#8 889999537#0 889999537#1 89478571#1 70056689#0 70056689#1 70056689#2 70056689#3 70056689#4 70056689#5 70056689#6 70056689#7 70056689#8 70056689#9 70056689#10 70056689#11 70056689#12 70056689#13 70056689#14 70056689#16 70056689#17 70056689#18 70056689#19 890063336#2 890063336#3 890063336#4 890063336#5 890063336#8 -533682528#7 78684178#0 78684178#1 -78684178#1"/>
    </vehicle>
    <vehicle id="veh20" type="veh_passenger" depart="36.48" departLane="best">
        <route edges="-563505767#1 -563505769#20 -563505769#19 -563505769#18 -563505769#16 -563505769#15 -563505769#13 75679335#4 75679335#5 237036477#21 237036477#22 237036477#23 237036477#24 1013410329 906065937 535719981 1013410331 329703619#0 329703619#2 329703619#3 535556337#6 535556337#7 535556339#0 535556339#1 535556339#2 535556339#3 535556339#4 1046248579#0 1046248579#1 1046248579#2 -1203381725 889993132#0 889993132#1"/>
    </vehicle>
    <vehicle id="veh21" type="veh_passenger" depart="38.31" departLane="best">
        <route edges="70200192#9 -179051712#2 -179051712#1 -179051712#0 890556455#1 89478571#1 89478571#2 89478571#3 69321368#0 69321368#1 69321368#2 69321368#3 89478572#1 89478572#2 89478572#3 89478572#4 89478572#5"/>
    </vehicle>
    <vehicle id="veh22" type="veh_passenger" depart="40.13" departLane="best">
        <route edges="-147412853#4 -147412853#3 69830501#6 70080979#10 70080979#11 70080979#12 70080979#1 70080979#2 77781343#0 77781343#1 77781343#2 77781343#3 77781347#1 77781347#2 563505764#0 563505764#1 890559138 -890559137#1 -890559137#0 -179051712#4 -179051712#3 -179051712#2 -179051712#1 -179051712#0 890556455#1 89478571#1 70056689#0 70056689#1 70056689#2 70056689#3 70056689#4 70056689#5 70056689#6 70056689#7 70056689#8 70056689#9 70056689#10 70056689#11 70056689#12 70056689#13 70056689#14 70056689#16 70056689#17 183658213#0 183658213#1 -77680543#4"/>
    </vehicle>
    <vehicle id="veh23" type="veh_passenger" depart="41.96" departLane="best">
        <route edges="-856607131#6 -970630999#2 -970630999#1 -970630999#0 -856607131#3 -856607131#2 -911130020 1075116935#1 85701977 147419852#2 147419852#3 563505758 220996670#0 85703442#0 85703442#1 85703442#2"/>
    </vehicle>
    <vehicle id="veh24" type="veh_passenger" depart="43.78" departLane="best">
        <route edges="70200195#5 70200195#6 70200195#7 70200195#8 70200195#9 70200195#10 70200195#11 70200195#12 70200195#13 70200195#14 70200195#15 70200195#16 70200195#17 70200195#18 563505738#0 563505738#1 70056689#4 70056689#5 70056689#6 70056689#7 70056689#8"/>
    </vehicle>
    <vehicle id="veh25" type="veh_passenger" depart="45.60" departLane="best">
        <route edges="-72644044#5 -72644044#4 -72644044#3 -72644044#2 70056689#12 70056689#13 70056689#14 70056689#16 70056689#17 70056689#18 70056689#19 890063336#2 890063336#3 890063336#4 890063336#5 85701995#1 85701995#2 85701995#3 69416763#0 69416763#1 220996673 89530503#5 89530503#6 89530503#7 89530503#8 220996670#0"/>
    </vehicle>
</routes>
